data_0
_chemical_formula_structural 
                                        C6H4C38H24C6H4C38H24C6H4C38H24C6H4C38H24C6H4C38H24C6H4C38H24C6H4C38H24C6H4C38H24C6H4C38H24C6H4C38H24C6H4C38H24C6H4C38H24C6H4C38H24C6H4C38H24C6H4C38H24C6H4C38H24C6H4C38H24C6H4C38H24C2H4C2H4C2H4C2H4C2H4C2H4C2H4C2H4C2H4C2H4C2H4C2H4C2H4C2H4C2H4C2H4C2H4C2H4C2H4C2H4C2H4C2H4C2H4C2H4C2H4C2H4C2H4C2H4C2H4C2H4C2H4C2H4C2H4C2H4C2H4C2H4C2H4C2H4C2H4C2H4C2H4C2H4C2H4C2H4C2H4C2H4C2H4C2H4C2H4C2H4C2H4C2H4C2H4C2H4C6H4C38H24C6H4C38H24C6H4C38H24C6H4C38H24C6H4C38H24C6H4C38H24C6H4C38H24C6H4C38H24C6H4C38H24C6H4C38H24C6H4C38H24C6H4C38H24C6H4C38H24C6H4C38H24C6H4C38H24C6H4C38H24C6H4C38H24C6H4C38H24C2H4C2H4C2H4C2H4C2H4C2H4C2H4C2H4C2H4C2H4C2H4C2H4C2H4C2H4C2H4C2H4C2H4C2H4C2H4C2H4C2H4C2H4C2H4C2H4C2H4C2H4C2H4C2H4C2H4C2H4C2H4C2H4C2H4C2H4C2H4C2H4C2H4C2H4C2H4C2H4C2H4C2H4C2H4C2H4C2H4C2H4C2H4C2H4C2H4C2H4C2H4C2H4C2H4C2H4
_chemical_formula_sum                   'C1800 H1440'
_cell_length_a                          50.518914062855494
_cell_length_b                          53.4824067297392
_cell_length_c                          35.659967655344985
_cell_angle_alpha                       90.54475184229527
_cell_angle_beta                        90.25633961433417
_cell_angle_gamma                       124.93510220900596
_space_group_name_H-M_alt               'P 1'
_space_group_IT_number                  1
loop_
  _space_group_symop_operation_xyz
         'x, y, z' 
loop_
  _atom_site_type_symbol
  _atom_site_label
  _atom_site_symmetry_multiplicity
  _atom_site_fract_x
  _atom_site_fract_y
  _atom_site_fract_z
  _atom_site_occupancy
         C         C         1.0       0.6710509180554309  0.48232493417458555           0.23756769172793665          1.0000   
         C         C         1.0       0.6453176182307202  0.4786285720909393  0.21923980282106326          1.0000   
         C         C         1.0       0.636154584260711   0.4977583198206136  0.22577537110721582          1.0000   
         C         C         1.0       0.6536994151176873  0.5225728314781507  0.2492729770765729 1.0000   
         C         C         1.0       0.6832019779239593  0.5290850962807611  0.26203010057835646          1.0000   
         C         C         1.0       0.690131805959977   0.5080617048679258  0.257777808496169  1.0000   
         H         H         1.0       0.6289058754922063  0.4584981813171759  0.20027665561717026          1.0000   
         H         H         1.0       0.6157467096303397  0.49509907508141626           0.21193799750605982          1.0000   
         H         H         1.0       0.7011660628090268  0.5501937018236446  0.27783666228771253          1.0000   
         H         H         1.0       0.7101539728753565  0.5114874109470574  0.27130011878874144          1.0000   
         C         C         1.0       0.6522073926828809  0.5346289505185841  0.3325180988640463 1.0000   
         C         C         1.0       0.6500078125335296  0.5536832646526355  0.3074502629623684 1.0000   
         C         C         1.0       0.6525858954538426  0.57902130926403    0.322595041307595  1.0000   
         C         C         1.0       0.6563404189198656  0.5840861060560225  0.36087809378555913          1.0000   
         C         C         1.0       0.6590875787299203  0.564784415312626   0.38437674632779967          1.0000   
         C         C         1.0       0.6567562644209745  0.5394059073481673  0.37036734763169243          1.0000   
         C         C         1.0       0.645755394758437   0.5459299385238796  0.26423556511084934          1.0000   
         C         C         1.0       0.609800311835248   0.5371667688426051  0.2590431261311793 1.0000   
         C         C         1.0       0.6034250185274703  0.5585315930717407  0.2514161698673475 1.0000   
         C         C         1.0       0.572456719316312   0.5508632137113376  0.2444766567015393 1.0000   
         C         C         1.0       0.5465250323590995  0.5208250403008828  0.24812615399531987          1.0000   
         C         C         1.0       0.5523475291268938  0.49961510249467017           0.2555399271631281 1.0000   
         C         C         1.0       0.5827789847720828  0.5072945335630874  0.2609546889704862 1.0000   
         C         C         1.0       0.6993570484981635  0.5999534327421736  0.25057063230018417          1.0000   
         C         C         1.0       0.7142156674380158  0.6266740634879102  0.23124990049135377          1.0000   
         C         C         1.0       0.7029789632087373  0.6286886981034082  0.19559231912543612          1.0000   
         C         C         1.0       0.6763050367246933  0.6012088358732152  0.1808493299326707 1.0000   
         C         C         1.0       0.6606960202934535  0.5748019984159701  0.201886107093875  1.0000   
         C         C         1.0       0.6695673125809006  0.5745552468259243  0.23854380770956088          1.0000   
         C         C         1.0       0.71215472806613    0.6596816948229612  0.17668069773036732          1.0000   
         C         C         1.0       0.6483575291878115  0.6726937692027839  0.2467632628262737 1.0000   
         C         C         1.0       0.6816484198246583  0.688071605445375   0.25663636068104617          1.0000   
         C         C         1.0       0.7020956790370146  0.684317711547128   0.2349754612571099 1.0000   
         C         C         1.0       0.6915781687643806  0.6682546471433214  0.20137133155339887          1.0000   
         C         C         1.0       0.6601667720981919  0.6553634111174296  0.19070876296043876          1.0000   
         C         C         1.0       0.6387982089570888  0.6576900662645262  0.21244533432758048          1.0000   
         C         C         1.0       0.7074465839133036  0.6586608662428838  0.13189906516505484          1.0000   
         C         C         1.0       0.7160781386126471  0.6421827074279326  0.11180514046392243          1.0000   
         C         C         1.0       0.7143990750142248  0.6397019977330306  0.07400672280291375          1.0000   
         C         C         1.0       0.7099091074269062  0.6586447238181566  0.05393442390338299          1.0000   
         C         C         1.0       0.7046515970676546  0.6777704481155532  0.07396177110799627          1.0000   
         C         C         1.0       0.7039001726753964  0.6777996526245064  0.11155741446320905          1.0000   
         C         C         1.0       0.7628360178021923  0.7182187908271499  0.17820679405665737          1.0000   
         C         C         1.0       0.7949551561894315  0.7397621267920277  0.17270476635988524          1.0000   
         C         C         1.0       0.8158034926067422  0.7320328569625041  0.16456968685436474          1.0000   
         C         C         1.0       0.8048961273135926  0.7023853475830006  0.1658420852681631 1.0000   
         C         C         1.0       0.7734266284698693  0.6798886871572508  0.17582714261545104          1.0000   
         C         C         1.0       0.7502328260797996  0.6870866741993868  0.17793536061621465          1.0000   
         H         H         1.0       0.6477209624497026  0.5136428811589888  0.32342989352231494          1.0000   
         H         H         1.0       0.6530286457751397  0.5958057013028061  0.30597620160519834          1.0000   
         H         H         1.0       0.6584757475141623  0.6032345431433263  0.3726016899808359 1.0000   
         H         H         1.0       0.658121092786038   0.5239068885948849  0.38708827985687716          1.0000   
         H         H         1.0       0.6235120963024005  0.5808224833330794  0.2502411505424541 1.0000   
         H         H         1.0       0.5700249853307101  0.5684998022243668  0.23700237735216462          1.0000   
         H         H         1.0       0.5315029313334196  0.47555443040274153           0.25326965467101714          1.0000   
         H         H         1.0       0.5867517552821403  0.4900805156090803  0.26677946141799064          1.0000   
         H         H         1.0       0.7104050367367917  0.6021596890187715  0.27940926217990325          1.0000   
         H         H         1.0       0.7376658829544928  0.6473800102387302  0.24237484547457183          1.0000   
         H         H         1.0       0.662674465371436   0.597848724524381   0.1560257762183467 1.0000   
         H         H         1.0       0.6376269715151702  0.5542192831190504  0.19336304537790194          1.0000   
         H         H         1.0       0.6900989034370112  0.696854474522831   0.2849812577584944 1.0000   
         H         H         1.0       0.7246625179943943  0.6915346841457637  0.24752123158346545          1.0000   
         H         H         1.0       0.6499503990065328  0.6398615601753427  0.16840394966614178          1.0000   
         H         H         1.0       0.6134497114356988  0.6436445470219471  0.20341210751910974          1.0000   
         H         H         1.0       0.7249179983921679  0.631646291060061   0.12617236457887307          1.0000   
         H         H         1.0       0.7225638021214827  0.6272619529920473  0.060096747302177844         1.0000   
         H         H         1.0       0.7043771636310494  0.6946611115516492  0.059003595365895174         1.0000   
         H         H         1.0       0.7079369516316201  0.6976043264208843  0.12616077856608654          1.0000   
         H         H         1.0       0.7475476994096416  0.7251606427302116  0.18055632517186201          1.0000   
         H         H         1.0       0.8040218222074822  0.7632933813580209  0.1710319694090007 1.0000   
         H         H         1.0       0.8210542794057272  0.6956837183032563  0.16310595657734803          1.0000   
         H         H         1.0       0.7638628554695083  0.6554970265318839  0.17987577490517292          1.0000   
         C         C         1.0       0.5307140113598192  0.5256276596034849  0.6667130411269492 1.0000   
         C         C         1.0       0.5310271885822847  0.5507945327127982  0.6575982672680389 1.0000   
         C         C         1.0       0.5467271713041989  0.5671597422542942  0.6265531497890586 1.0000   
         C         C         1.0       0.5610773375304844  0.5594842405456654  0.6018849282220419 1.0000   
         C         C         1.0       0.560005476135644   0.5334473550126294  0.6096231206572336 1.0000   
         C         C         1.0       0.545549351473493   0.5170090962142185  0.6421655944822476 1.0000   
         H         H         1.0       0.5188074652206431  0.5583171698432479  0.6732914449612266 1.0000   
         H         H         1.0       0.5453031882486383  0.5858677296051773  0.6190774522900316 1.0000   
         H         H         1.0       0.5664730662369418  0.5237948352670395  0.5868690071364646 1.0000   
         H         H         1.0       0.5439194560835098  0.49615849214156754           0.6444639637523397 1.0000   
         C         C         1.0       0.6132528292549846  0.56388265586018    0.5459182986152592 1.0000   
         C         C         1.0       0.59037835407038    0.567537537611741   0.5327400541552979 1.0000   
         C         C         1.0       0.5850771927694857  0.5665781355533344  0.4925871872171937 1.0000   
         C         C         1.0       0.6031378605402588  0.5635915302087121  0.46725807348463483          1.0000   
         C         C         1.0       0.6241281355463845  0.5580600519873846  0.4821761689446126 1.0000   
         C         C         1.0       0.6307051664732268  0.5605502537370366  0.5199519078541004 1.0000   
         C         C         1.0       0.5713306993393806  0.5750651168384928  0.5606832483686208 1.0000   
         C         C         1.0       0.5925468869092102  0.6113060708259045  0.5644841331511896 1.0000   
         C         C         1.0       0.5956427506673742  0.6284757833423577  0.5341884003637648 1.0000   
         C         C         1.0       0.6128875703089893  0.6588103064899378  0.5350735749097524 1.0000   
         C         C         1.0       0.6282893078619518  0.6745979912647925  0.5664252735513976 1.0000   
         C         C         1.0       0.6247244228502067  0.6582106514519073  0.5982543791384439 1.0000   
         C         C         1.0       0.610091674531989   0.6282074309394772  0.5967152677470932 1.0000   
         C         C         1.0       0.516925995997801   0.5308204487828042  0.532618366064213  1.0000   
         C         C         1.0       0.4894645620668649  0.5180018364123959  0.5124620944449856 1.0000   
         C         C         1.0       0.476662216223968   0.5343521800482218  0.5037511693460879 1.0000   
         C         C         1.0       0.4934004685273968  0.5640613301529702  0.5186017945452955 1.0000   
         C         C         1.0       0.521027700268333   0.5765687347114646  0.5397142995795882 1.0000   
         C         C         1.0       0.5351212239744504  0.5610997258877659  0.5440553125853592 1.0000   
         C         C         1.0       0.44990756343800675           0.52219564716597   0.4711387077962085 1.0000   
         C         C         1.0       0.5024178173046234  0.5109921257000966  0.3831659071356129 1.0000   
         C         C         1.0       0.47094327263994357           0.48707326997299816          0.38982672389581213          1.0000   
         C         C         1.0       0.45399740269833694           0.49138502071736895          0.41560235065380546          1.0000   
         C         C         1.0       0.4682878894066343  0.5189647228099369  0.4358955823430501 1.0000   
         C         C         1.0       0.5001012905034423  0.542969962753336   0.42626964317577587          1.0000   
         C         C         1.0       0.5166082139639857  0.5389282409170599  0.4003141091236129 1.0000   
         C         C         1.0       0.4410482755698036  0.5447357363991576  0.46189495819440035          1.0000   
         C         C         1.0       0.4272390722156149  0.5531889892085754  0.4873011213669458 1.0000   
         C         C         1.0       0.42372257150918646           0.5764277781326496 0.4800200749961207 1.0000   
         C         C         1.0       0.4335759095703872  0.5918087125522398  0.44652212421901   1.0000   
         C         C         1.0       0.4447975874294952  0.5822120254435077  0.42021198731595266          1.0000   
         C         C         1.0       0.4462855061174299  0.5578937338394909  0.42806929446142183          1.0000   
         C         C         1.0       0.3910454718344084  0.473832477830356   0.4623500732828592 1.0000   
         C         C         1.0       0.3650315390697227  0.4455106111588299  0.4731119229957925 1.0000   
         C         C         1.0       0.36614563700351066           0.4346466352888379 0.5074779147006672 1.0000   
         C         C         1.0       0.38959106428712176           0.4527395646526804 0.5327856696800327 1.0000   
         C         C         1.0       0.4147139390404857  0.4811781721835198  0.52232994091271   1.0000   
         C         C         1.0       0.41656178783147646           0.49288194839305544          0.4864705158999612 1.0000   
         H         H         1.0       0.6195376389253054  0.564446664047461   0.5754443424910627 1.0000   
         H         H         1.0       0.5678410489908625  0.5702357181502805  0.479728925205543  1.0000   
         H         H         1.0       0.5975160721908532  0.5615795907005353  0.43818868280626694          1.0000   
         H         H         1.0       0.6488875369403769  0.5572035093935492  0.5289415615282509 1.0000   
         H         H         1.0       0.5840423204284594  0.6178614649257601  0.507741005828557  1.0000   
         H         H         1.0       0.6178932204104588  0.6728359192585113  0.5086325823486783 1.0000   
         H         H         1.0       0.6374134328942094  0.6709299872705862  0.624205735533483  1.0000   
         H         H         1.0       0.6118868654759443  0.6193385721736746  0.6237649094242284 1.0000   
         H         H         1.0       0.5260673222340303  0.5171002812645575  0.536830568152906  1.0000   
         H         H         1.0       0.47540289458762214           0.494068622188929  0.5072908580018011 1.0000   
         H         H         1.0       0.48524284393271155           0.5791232327853622 0.5130457075859299 1.0000   
         H         H         1.0       0.5318518702490275  0.5987345182817164  0.5529122712078661 1.0000   
         H         H         1.0       0.46133257874816874           0.4655115525659309 0.3774774832271153 1.0000   
         H         H         1.0       0.4310185860601735  0.4709441685567462  0.4184599545415188 1.0000   
         H         H         1.0       0.513171222706792   0.5645515650428946  0.43793665047663083          1.0000   
         H         H         1.0       0.5432781015111617  0.5546538704515682  0.3990454604929324 1.0000   
         H         H         1.0       0.42121787887236006           0.5430661367332923 0.5140011387144912 1.0000   
         H         H         1.0       0.4171529170217353  0.5856345284304687  0.502659856283735  1.0000   
         H         H         1.0       0.4521276914301049  0.591276016470243   0.39150582525294736          1.0000   
         H         H         1.0       0.45405523073385806           0.5502586040162072 0.4053651143114943 1.0000   
         H         H         1.0       0.3934718502603417  0.48643751404080293           0.4369984700189124 1.0000   
         H         H         1.0       0.3439782430078416  0.4323745076756891  0.4547136672060762 1.0000   
         H         H         1.0       0.3896756969132739  0.4454188520376714  0.5620564773494178 1.0000   
         H         H         1.0       0.4302116618064429  0.495908459507216   0.5457575527167235 1.0000   
         C         C         1.0       0.55990086159778    0.8766933003304932  0.3706543759721074 1.0000   
         C         C         1.0       0.5889175333473392  0.8888057932921983  0.35172261134949345          1.0000   
         C         C         1.0       0.6122280916774632  0.8878757452058831  0.3675331360836532 1.0000   
         C         C         1.0       0.6084497068314147  0.8748064883899217  0.40404688148584084          1.0000   
         C         C         1.0       0.5773662486609781  0.8603289397576616  0.4187716584717831 1.0000   
         C         C         1.0       0.5527980395722831  0.8601519440564278  0.40144391371354543          1.0000   
         H         H         1.0       0.5919921537140889  0.9005424944406164  0.3246677375893631 1.0000   
         H         H         1.0       0.6341002957482214  0.8977720589917683  0.35384253091238793          1.0000   
         H         H         1.0       0.5678473531721684  0.8479726153846183  0.4451066611414162 1.0000   
         H         H         1.0       0.5304795654651003  0.8512961156286619  0.41355524563492285          1.0000   
         C         C         1.0       0.6308056203918947  0.9064255230256278  0.4812376956018774 1.0000   
         C         C         1.0       0.641593747009248   0.8896976281518396  0.4682327354150015 1.0000   
         C         C         1.0       0.6560281679585811  0.8808959223921273  0.4951487230994206 1.0000   
         C         C         1.0       0.6514598672765363  0.8821416514846702  0.5326812637752751 1.0000   
         C         C         1.0       0.6377776678162012  0.8960349125923812  0.5448115734560399 1.0000   
         C         C         1.0       0.6282114001539959  0.909233088839064   0.5193185206972761 1.0000   
         C         C         1.0       0.6373265631463717  0.8784825074045287  0.42506989249726246          1.0000   
         C         C         1.0       0.674400614142167   0.9035327845767241  0.41107541699303546          1.0000   
         C         C         1.0       0.6972550784665491  0.8966585424376321  0.4145634026547675 1.0000   
         C         C         1.0       0.7280647998688227  0.9160651020218268  0.402028216140189  1.0000   
         C         C         1.0       0.7376181548982718  0.9434211490944885  0.38901729435164173          1.0000   
         C         C         1.0       0.7165512988315738  0.9527076329248361  0.389009096049322  1.0000   
         C         C         1.0       0.6845106203965892  0.931805483994144   0.3988137948924856 1.0000   
         C         C         1.0       0.6155382786902642  0.822165968480672   0.4433441484070022 1.0000   
         C         C         1.0       0.6178418938942855  0.7972645469061044  0.43961292564723914          1.0000   
         C         C         1.0       0.6306115829803213  0.7936166504497137  0.40676248888454036          1.0000   
         C         C         1.0       0.6352500959610096  0.8123045568901415  0.37667050024019866          1.0000   
         C         C         1.0       0.6348811948956566  0.8371864001034124  0.38260858493394234          1.0000   
         C         C         1.0       0.6288071827502604  0.8449632076617821  0.4170778414199221 1.0000   
         C         C         1.0       0.6507066541669826  0.7790695977922578  0.4071659092338452 1.0000   
         C         C         1.0       0.7515742660216239  0.8615828525526298  0.4166562456537927 1.0000   
         C         C         1.0       0.7313609974156489  0.8516918985292414  0.4477063601030799 1.0000   
         C         C         1.0       0.6998225555543959  0.8256104220800942  0.4454624234088758 1.0000   
         C         C         1.0       0.6880408721034491  0.8101796350466807  0.4114791194541601 1.0000   
         C         C         1.0       0.7074070337500037  0.8228216776345276  0.3802552244731843 1.0000   
         C         C         1.0       0.7387135609709926  0.8472180492133036  0.3832907693430851 1.0000   
         C         C         1.0       0.6442618511298275  0.757956216341584   0.37244046837544603          1.0000   
         C         C         1.0       0.6141877056787455  0.7403403671897585  0.3547227561191238 1.0000   
         C         C         1.0       0.6080649473820643  0.7227844732280371  0.32350868851270054          1.0000   
         C         C         1.0       0.6328789271639087  0.7214530423021263  0.3105100566818267 1.0000   
         C         C         1.0       0.662097729200215   0.7360564424433916  0.3304565425831594 1.0000   
         C         C         1.0       0.6674301336930275  0.7526793617336431  0.3610922152468111 1.0000   
         C         C         1.0       0.670386798190918   0.7572851633921555  0.4571613892350472 1.0000   
         C         C         1.0       0.668880423989123   0.7486679344088338  0.49341604284149565          1.0000   
         C         C         1.0       0.6411041291117182  0.7355827491107926  0.5134538823429506 1.0000   
         C         C         1.0       0.6136092008263545  0.7282930106848541  0.4938020741046725 1.0000   
         C         C         1.0       0.6148938083159525  0.7383303425471014  0.4586439318296452 1.0000   
         C         C         1.0       0.6444019725226602  0.7566267712802797  0.439765725616684  1.0000   
         H         H         1.0       0.6207950183119146  0.9137013485146473  0.46160776063086645          1.0000   
         H         H         1.0       0.6642396343286131  0.8657952751630889  0.4886385317055519 1.0000   
         H         H         1.0       0.6585599563800312  0.8732281809429064  0.5545860884410386 1.0000   
         H         H         1.0       0.6135196168014037  0.9179363713403125  0.5267143267346818 1.0000   
         H         H         1.0       0.6911708191858471  0.8780037543263988  0.42952692734455433          1.0000   
         H         H         1.0       0.7430883284471731  0.9082778654991754  0.402290123035833  1.0000   
         H         H         1.0       0.7218789634065073  0.9738722645888573  0.3791207724755689 1.0000   
         H         H         1.0       0.6679878098767051  0.9384480295791869  0.4010582469801604 1.0000   
         H         H         1.0       0.6072991154439749  0.8237999622084742  0.4712630554034637 1.0000   
         H         H         1.0       0.615013118033104   0.7857634621396862  0.46788303416925103          1.0000   
         H         H         1.0       0.641007930228055   0.8087647467862932  0.34883294530910886          1.0000   
         H         H         1.0       0.6409625627142641  0.8528121810558412  0.35899002577059214          1.0000   
         H         H         1.0       0.7419923578998802  0.8645743215404595  0.47357671529860956          1.0000   
         H         H         1.0       0.6833511963885907  0.8165021592978554  0.46897056277066357          1.0000   
         H         H         1.0       0.6957816572231389  0.8147009921082089  0.3530623333781425 1.0000   
         H         H         1.0       0.7522225237133168  0.8576407648475263  0.3594733385879932 1.0000   
         H         H         1.0       0.5966850423143553  0.7436103859548103  0.3651708801557176 1.0000   
         H         H         1.0       0.5860884671993428  0.7125407236337625  0.30855613516942304          1.0000   
         H         H         1.0       0.6800172427682931  0.7330085615307925  0.3217389074501303 1.0000   
         H         H         1.0       0.6906418285542445  0.7647830930260354  0.3751259551707049 1.0000   
         H         H         1.0       0.6942062890766101  0.7698316988343789  0.4429573895110951 1.0000   
         H         H         1.0       0.6887090771027196  0.7491291951883016  0.5024149276851057 1.0000   
         H         H         1.0       0.5918996629942012  0.7182142722800438  0.5102251521845405 1.0000   
         H         H         1.0       0.5942543346167211  0.7364200567784855  0.4456266017130834 1.0000   
         C         C         1.0       0.7702176113836693  0.9737840541115793  0.30846308042861176          1.0000   
         C         C         1.0       0.7847118456940444  0.9610516196205691  0.2918810270616242 1.0000   
         C         C         1.0       0.7787669368645164  0.9528491499128167  0.255416032840688  1.0000   
         C         C         1.0       0.759418085140003   0.9581742908482688  0.2336598370687414 1.0000   
         C         C         1.0       0.7489767802461239  0.9746563937368705  0.25059348835827594          1.0000   
         C         C         1.0       0.7508404399707836  0.9782883717044064  0.28826114855997303          1.0000   
         H         H         1.0       0.8012965292912393  0.957943755108735   0.3090215977103314 1.0000   
         H         H         1.0       0.7909840672357773  0.9441234426925841  0.2411339251617725 1.0000   
         H         H         1.0       0.7391906820633761  0.984528936708209   0.23455323324820224          1.0000   
         H         H         1.0       0.7425365099739534  0.9905362203980739  0.3011752408530808 1.0000   
         C         C         1.0       0.6935333164889778  0.9108261031153908  0.6848524000890052 1.0000   
         C         C         1.0       0.7244857290026658  0.9293011146144569  0.6708601716985152 1.0000   
         C         C         1.0       0.7284124875552633  0.9411780607639352  0.6345119079173892 1.0000   
         C         C         1.0       0.7031560967514243  0.9359526585996243  0.6148174539975034 1.0000   
         C         C         1.0       0.6722418681679867  0.9186671718021578  0.6306615070994649 1.0000   
         C         C         1.0       0.668755256682014   0.9076124063461773  0.6656510133544467 1.0000   
         C         C         1.0       0.7561074126001393  0.9510238899508373  0.1910402440143282 1.0000   
         C         C         1.0       0.7508451468820175  0.9187280860679428  0.1803910449216358 1.0000   
         C         C         1.0       0.7639883915543435  0.9003677093990816  0.647715767306745  1.0000   
         C         C         1.0       0.7579787965720713  0.8734799787546779  0.6353368950085464 1.0000   
         C         C         1.0       0.7419263550688062  0.8641622521571731  0.16240875472596453          1.0000   
         C         C         1.0       0.7311649887310988  0.8683909516865349  0.19552996739318698          1.0000   
         C         C         1.0       0.7332578666838845  0.8941567400543972  0.2031066386548946 1.0000   
         C         C         1.0       0.7902597726606505  0.007925703546256768         0.17730719778180115          1.0000   
         C         C         1.0       0.8130576200122447  0.03384590059419046           0.1576746813890089 1.0000   
         C         C         1.0       0.8401019489958859  0.03719874631285558           0.1431537405014438 1.0000   
         C         C         1.0       0.8411640544060285  0.011839947718573107         0.14535363973191148          1.0000   
         C         C         1.0       0.816034103007654   0.9845381202018916  0.16187404093877725          1.0000   
         C         C         1.0       0.7902483969295053  0.9821435205603862  0.17705534148605812          1.0000   
         C         C         1.0       0.8599662592471112  0.04728973600144637           0.6238153822154132 1.0000   
         C         C         1.0       0.7843777364609783  0.016767871798940126         0.53890330746055   1.0000   
         C         C         1.0       0.7913231970434976  0.03952194014706367           0.5640117689427872 1.0000   
         C         C         1.0       0.8156266835976272  0.050818346085653054         0.5899732150470315 1.0000   
         C         C         1.0       0.834263989710588   0.03938451942893084           0.5919340081884245 1.0000   
         C         C         1.0       0.8261321685030707  0.014638811233187443         0.5664623586198201 1.0000   
         C         C         1.0       0.8024848611661489  0.005075743409773903         0.5400305822416976 1.0000   
         C         C         1.0       0.8923989671522218  0.051785012159756276         0.607529513259451  1.0000   
         C         C         1.0       0.9144246322002655  0.06718207933533837           0.13809587073881482          1.0000   
         C         C         1.0       0.9417503496898112  0.05739194288699867           0.6204877207618362 1.0000   
         C         C         1.0       0.9498081911315779  0.060690415686396985         0.5826138841335209 1.0000   
         C         C         1.0       0.9265575491936319  0.058774784973862015         0.5572284961870004 1.0000   
         C         C         1.0       0.9008760289411278  0.05757652042022343           0.5702606195335448 1.0000   
         C         C         1.0       0.8838895566483942  0.12137752869642952           0.10330680216592741          1.0000   
         C         C         1.0       0.8978252371469514  0.15124634160977007           0.113698908948158  1.0000   
         C         C         1.0       0.899692334149167   0.1587247744096637  0.151418369319742  1.0000   
         C         C         1.0       0.8885588686506458  0.13637730422446506           0.1768103723895217 1.0000   
         C         C         1.0       0.8754866557165686  0.10637404591038012           0.16507298077048116          1.0000   
         C         C         1.0       0.873731420117172   0.0985354545997321  0.12772922130644138          1.0000   
         H         H         1.0       0.6929488762615904  0.9192126503525162  0.21338551438299336          1.0000   
         H         H         1.0       0.7511221827639352  0.953918242327797   0.6229664858200274 1.0000   
         H         H         1.0       0.7075371736534201  0.9473317425646058  0.5868279852615795 1.0000   
         H         H         1.0       0.6448591256853612  0.8967070173740114  0.6773179456093588 1.0000   
         H         H         1.0       0.7728395661919168  0.9186430783046826  0.6286179859885542 1.0000   
         H         H         1.0       0.7693645421203422  0.8726852153930013  0.6106668294179823 1.0000   
         H         H         1.0       0.7172517918236163  0.8508911627659415  0.21595796487039437          1.0000   
         H         H         1.0       0.723964785544583   0.8965097892902443  0.2292695552085017 1.0000   
         H         H         1.0       0.7687098967653017  0.003966619041187336         0.19127608292969187          1.0000   
         H         H         1.0       0.8101827189583717  0.053045460320170434         0.15519672113613273          1.0000   
         H         H         1.0       0.8612254505452959  0.9971419537986248  0.6490994246119203 1.0000   
         H         H         1.0       0.8151322188172119  0.9642334263817479  0.1602260398750514 1.0000   
         H         H         1.0       0.7776634950226521  0.048677001425801114         0.5620166649283327 1.0000   
         H         H         1.0       0.8171528871238465  0.06704308379960522           0.6100847695607412 1.0000   
         H         H         1.0       0.8379831494464536  0.0027156746208931715        0.5671058723134372 1.0000   
         H         H         1.0       0.79789021722861    0.9893328093098934  0.5172950609778677 1.0000   
         H         H         1.0       0.9069538470225498  0.06459316142397808           0.1675341313009896 1.0000   
         H         H         1.0       0.95744803801407    0.06778148423661867           0.1495098442307676 1.0000   
         H         H         1.0       0.9292639652422562  0.059406550727260754         0.5260078086189931 1.0000   
         H         H         1.0       0.8862602394746187  0.058667327396024094         0.5483116251542157 1.0000   
         H         H         1.0       0.8817099294882226  0.09911906268504768           0.5902103429715794 1.0000   
         H         H         1.0       0.9037440646402025  0.16920533388769116           0.09532990709037859          1.0000   
         H         H         1.0       0.8905826905927988  0.14213539750841594           0.20602930895635982          1.0000   
         H         H         1.0       0.8665774682160899  0.08870024731705153           0.18661432892410412          1.0000   
         C         C         1.0       0.9308005589530369  0.5192088851604633  0.12360443084781629          1.0000   
         C         C         1.0       0.9579725398022816  0.5356600724982409  0.1000032114761773 1.0000   
         C         C         1.0       0.9879022385040834  0.5429401152217173  0.1117546940186176 1.0000   
         C         C         1.0       0.9911366600354484  0.5334858857267873  0.1467204928355222 1.0000   
         C         C         1.0       0.96440868911144    0.5136740151139835  0.16709626585409593          1.0000   
         C         C         1.0       0.9348929147853883  0.5081401172353616  0.1568140987304637 1.0000   
         H         H         1.0       0.9546938200059921  0.5437081944632755  0.07490994672777207          1.0000   
         H         H         1.0       0.007807645804454699          0.5550459183073472 0.0915736236924316 1.0000   
         H         H         1.0       0.9680765075414411  0.5083099549713588  0.1957681992599268 1.0000   
         H         H         1.0       0.913947744361051   0.49686237446810483           0.17464293593256341          1.0000   
         C         C         1.0       0.0023116652290906536         0.578349877636189  0.20377524174028336          1.0000   
         C         C         1.0       0.022062730674763165          0.567341421983799  0.20590577520112258          1.0000   
         C         C         1.0       0.039035016387959365          0.5745883392282234 0.23868199941033844          1.0000   
         C         C         1.0       0.03498542796608617           0.5871681546877229 0.26971370088092   1.0000   
         C         C         1.0       0.011543736384290071          0.5925183711897444 0.2697340387861517 1.0000   
         C         C         1.0       0.9956347207715966  0.5879498086740316  0.2358039119502892 1.0000   
         C         C         1.0       0.024765539211889065          0.5508998731545652 0.17003104057554055          1.0000   
         C         C         1.0       0.05718924276531867           0.5790914596928072 0.15091691768826837          1.0000   
         C         C         1.0       0.08532166469344293           0.5804592096025005 0.14840566526292268          1.0000   
         C         C         1.0       0.11152781365606755           0.6035386040924972 0.13150055745710176          1.0000   
         C         C         1.0       0.11205836937262466           0.6256814945069523 0.11397021222363936          1.0000   
         C         C         1.0       0.08339358138706077           0.623532060512646  0.11288578009251342          1.0000   
         C         C         1.0       0.05673423258950838           0.601543537117827  0.13398841311091436          1.0000   
         C         C         1.0       0.03126847236120822           0.5136827925006774 0.2099316275137722 1.0000   
         C         C         1.0       0.04052280406664854           0.4933424263332523 0.2146001236158262 1.0000   
         C         C         1.0       0.04487771396458973           0.4802698010160294 0.1839427003741691 1.0000   
         C         C         1.0       0.03756235354184234           0.4866558011736219 0.14995388639740168          1.0000   
         C         C         1.0       0.031496453450768014          0.5088203520612383 0.14499613443122422          1.0000   
         C         C         1.0       0.026632926593576745          0.5224859737079781 0.17580146641033198          1.0000   
         C         C         1.0       0.060321854960082355          0.4609552451070174 0.18566670096254523          1.0000   
         C         C         1.0       0.164669737542654   0.527807453948184   0.1650734861918499 1.0000   
         C         C         1.0       0.1517050929101953  0.5279806991250241  0.19906028804213463          1.0000   
         C         C         1.0       0.11886986346950912           0.5072716227244566 0.20479464189931393          1.0000   
         C         C         1.0       0.0973091979116234  0.48691336308835426           0.17683822508580657          1.0000   
         C         C         1.0       0.11138577764474666           0.49092788918034674          0.14183406231686038          1.0000   
         C         C         1.0       0.14471068103340487           0.5083303810467917 0.13634860692221532          1.0000   
         C         C         1.0       0.03999228932581045           0.43004275144973225          0.1620580615746603 1.0000   
         C         C         1.0       0.006990918265658674          0.41400962933735536          0.15738371434675583          1.0000   
         C         C         1.0       0.9883026673871326  0.3872366118218084  0.13845868836104214          1.0000   
         C         C         1.0       0.0032005889408490695         0.3751499458707166 0.12381357810566253          1.0000   
         C         C         1.0       0.03621108846634846           0.3889127372808655 0.1286012982404332 1.0000   
         C         C         1.0       0.054656781148620937          0.41611313028751934          0.14768477515152445          1.0000   
         C         C         1.0       0.0798812277274048  0.44268376345709237           0.24194588093105004          1.0000   
         C         C         1.0       0.07973086735564228           0.43754442446096387          0.2793527536760536 1.0000   
         C         C         1.0       0.053339203593171014          0.4296201266483163 0.3026170448775303 1.0000   
         C         C         1.0       0.028224169291888535          0.4277123147001451 0.28499525944596465          1.0000   
         C         C         1.0       0.029485463371792697          0.43472022616601846          0.24812169446615648          1.0000   
         C         C         1.0       0.05653413275064745           0.4450922846251918 0.2255141940875152 1.0000   
         H         H         1.0       0.9891555085166447  0.5742116917950113  0.17900663450927723          1.0000   
         H         H         1.0       0.05924147242125577           0.572341691576458  0.24309240269867338          1.0000   
         H         H         1.0       0.04346877014377374           0.5850556777222419 0.29510859865532374          1.0000   
         H         H         1.0       0.9741195069193228  0.5885588596404605  0.2375467818234894 1.0000   
         H         H         1.0       0.08912285888212149           0.564072174261084  0.16131050000337416          1.0000   
         H         H         1.0       0.13142215068323343           0.6017760146281577 0.13039999206160957          1.0000   
         H         H         1.0       0.0818643689590206  0.6398591238813917  0.09832810803893532          1.0000   
         H         H         1.0       0.03473643905190493           0.6023843858309721 0.13330070994220627          1.0000   
         H         H         1.0       0.02548866657846749           0.5206957640465755 0.23536384302165952          1.0000   
         H         H         1.0       0.04601818480957842           0.490128202073242  0.2435145332550172 1.0000   
         H         H         1.0       0.04171397952158595           0.4764520054056266 0.12629243197966725          1.0000   
         H         H         1.0       0.03078479471085349           0.5149612668794461 0.11654180410657689          1.0000   
         H         H         1.0       0.167234910853976   0.545421036645832   0.22054076721582236          1.0000   
         H         H         1.0       0.11256328653081793           0.5091245259868139 0.2341985225422344 1.0000   
         H         H         1.0       0.09631661562921834           0.47632771783104544          0.11867357149501379          1.0000   
         H         H         1.0       0.15735858263058822           0.5114859155763603 0.11216529421644855          1.0000   
         H         H         1.0       0.9911646601469765  0.41996809990763445           0.16797451222184426          1.0000   
         H         H         1.0       0.962514338368176   0.375320362603332   0.1376204147856054 1.0000   
         H         H         1.0       0.04543235171323601           0.37710878617840793          0.11621372445847968          1.0000   
         H         H         1.0       0.0793457207203574  0.42539594010003096           0.15669950919727957          1.0000   
         H         H         1.0       0.10182047840832897           0.4526227812127783 0.22586623127262648          1.0000   
         H         H         1.0       0.10169108390355208           0.4411524005056512 0.29070350558228175          1.0000   
         H         H         1.0       0.004879257760792566          0.4160676986063239 0.29950301907868426          1.0000   
         H         H         1.0       0.008695398183714786          0.4333001170649448 0.23729969667535725          1.0000   
         C         C         1.0       0.14155734073676035           0.6569091768795234 0.5378131050480475 1.0000   
         C         C         1.0       0.16260016575316902           0.6543026036781681 0.5149337176246593 1.0000   
         C         C         1.0       0.15741058410464942           0.6500064315544827 0.4772915408878093 1.0000   
         C         C         1.0       0.13254995398623348           0.6493794687332648 0.46081612429235697          1.0000   
         C         C         1.0       0.11390619230130368           0.6553221472512439 0.4825077008557543 1.0000   
         C         C         1.0       0.11763913992184691           0.6579986902121608 0.521475409977539  1.0000   
         H         H         1.0       0.18100650580497354           0.6542158267362379 0.5281739426099032 1.0000   
         H         H         1.0       0.17426225278586566           0.6472621287833683 0.46205047639095975          1.0000   
         H         H         1.0       0.09617972397562147           0.6588868130628607 0.47002627555881044          1.0000   
         H         H         1.0       0.09918597723043487           0.6579543243236169 0.5361606257990235 1.0000   
         C         C         1.0       0.06488222435940903           0.608498563995314  0.41720316310731487          1.0000   
         C         C         1.0       0.09330938823068187           0.6316611364035581 0.4007002757481903 1.0000   
         C         C         1.0       0.09138873158707893           0.6430720550483505 0.366775488188815  1.0000   
         C         C         1.0       0.06317934918665154           0.6305937110214761 0.3490132397243523 1.0000   
         C         C         1.0       0.03582365291380518           0.6065478739307862 0.3640492857311127 1.0000   
         C         C         1.0       0.0365098669742534  0.5972443623630459  0.3988856890005802 1.0000   
         C         C         1.0       0.1272274912682383  0.6438407744352947  0.41790224131570197          1.0000   
         C         C         1.0       0.1283424532302156  0.615315626313498   0.4038800115034493 1.0000   
         C         C         1.0       0.13863749706950648           0.6163580080040276 0.36674310874432   1.0000   
         C         C         1.0       0.13999312468067993           0.5923212117837608 0.35371881404529165          1.0000   
         C         C         1.0       0.1287423432694791  0.5671354452187772  0.37475208668061927          1.0000   
         C         C         1.0       0.11607363870804978           0.5651956148676247 0.40891871262478835          1.0000   
         C         C         1.0       0.11483846520518833           0.588790189229486  0.42365387972092966          1.0000   
         C         C         1.0       0.1503074299448443  0.7008905846631208  0.4051673414266897 1.0000   
         C         C         1.0       0.17344667536569794           0.7290041758480545 0.39174252505371715          1.0000   
         C         C         1.0       0.20000613911333226           0.7356623073118566 0.37400444084862455          1.0000   
         C         C         1.0       0.2068629367007089  0.714825630953325   0.3770187827067724 1.0000   
         C         C         1.0       0.185005515749871   0.6857372082928417  0.39103894600820055          1.0000   
         C         C         1.0       0.15547504761694156           0.6779239535970936 0.40525459005476033          1.0000   
         C         C         1.0       0.21889183660402514           0.7633605336951765 0.3463191514983044 1.0000   
         C         C         1.0       0.16144569403000522           0.7148587426089366 0.24409013408225497          1.0000   
         C         C         1.0       0.15064526406399645           0.7259177684381697 0.27057941137234115          1.0000   
         C         C         1.0       0.1681280538254482  0.7398479838834845  0.3015299298379692 1.0000   
         C         C         1.0       0.19960861411812852           0.7474400656869377 0.3078084853138818 1.0000   
         C         C         1.0       0.21010123248573281           0.7350109161409181 0.2826912106971445 1.0000   
         C         C         1.0       0.19109974726359688           0.7186020110945847 0.2515895609641701 1.0000   
         C         C         1.0       0.2577894574952325  0.7804497127366179  0.3449615462487636 1.0000   
         C         C         1.0       0.27581395382415735           0.7797300871495839 0.37380708966621634          1.0000   
         C         C         1.0       0.3089120633073386  0.7941339429670871  0.3683081040048276 1.0000   
         C         C         1.0       0.32383573766535995           0.8080082114195699 0.3342137121739688 1.0000   
         C         C         1.0       0.30392869791420907           0.8078500008960916 0.306525901059392  1.0000   
         C         C         1.0       0.271864275654827   0.7948347772146308  0.3118310678232012 1.0000   
         C         C         1.0       0.2184604473302563  0.8102401290686037  0.33016101293759503          1.0000   
         C         C         1.0       0.21695558660144354           0.8343685089596394 0.3405641755315703 1.0000   
         C         C         1.0       0.21654504718703055           0.8408813966558211 0.37769897846731226          1.0000   
         C         C         1.0       0.2176363584448963  0.8226421149626028  0.40415623749219254          1.0000   
         C         C         1.0       0.22102579827868135           0.8001630543759785 0.39553185917454886          1.0000   
         C         C         1.0       0.21966534294122741           0.7920577885048609 0.35697981635406195          1.0000   
         H         H         1.0       0.06526832494343211           0.5988671720039381 0.4433251358732528 1.0000   
         H         H         1.0       0.11314522402205175           0.6586946111050515 0.35207047671277514          1.0000   
         H         H         1.0       0.0634345844688137  0.6383621864368252  0.3225151008373297 1.0000   
         H         H         1.0       0.014765537098225145          0.5823231914890781 0.4113228816372641 1.0000   
         H         H         1.0       0.14777234177320797           0.6354590191063397 0.34994578629077017          1.0000   
         H         H         1.0       0.15047012120749356           0.5943198886220297 0.3263862488431287 1.0000   
         H         H         1.0       0.10712852261075421           0.5449879195002172 0.42553021243828515          1.0000   
         H         H         1.0       0.10589484239857112           0.5868795916446067 0.45082092988688566          1.0000   
         H         H         1.0       0.12857262337567793           0.6963600095676804 0.4178837956027833 1.0000   
         H         H         1.0       0.1634719258760887  0.7423188813419878  0.3883711239781712 1.0000   
         H         H         1.0       0.2279573508006537  0.7173714950853486  0.36268467658170767          1.0000   
         H         H         1.0       0.19373932472640443           0.6711043774636558 0.39444080689784017          1.0000   
         H         H         1.0       0.12837404305765843           0.7240288269250788 0.26754232680578366          1.0000   
         H         H         1.0       0.15709739414352852           0.7461132474941153 0.321524546582885  1.0000   
         H         H         1.0       0.23035726165095421           0.734658105579956  0.2856068377084161 1.0000   
         H         H         1.0       0.20127514812804054           0.711150762100203  0.23182465726357573          1.0000   
         H         H         1.0       0.26460769051572297           0.7703913980089745 0.4006493478423226 1.0000   
         H         H         1.0       0.3215266593428167  0.7909128742237997  0.3904981064970086 1.0000   
         H         H         1.0       0.31474167141686227           0.8154264860863545 0.27826259645485435          1.0000   
         H         H         1.0       0.25746043029669785           0.793110763814441  0.2885945799058347 1.0000   
         H         H         1.0       0.21607330516187026           0.8026938339446044 0.30128784569867134          1.0000   
         H         H         1.0       0.21737418958507787           0.8475693743773105 0.3168875349860619 1.0000   
         H         H         1.0       0.21562205311503008           0.8282918460028763 0.432344376089906  1.0000   
         H         H         1.0       0.2232316626913962  0.7889139480676619  0.4185179923708151 1.0000   
         C         C         1.0       0.9996636692569622  0.8979538771325526  0.4527073629550406 1.0000   
         C         C         1.0       0.9848174939878878  0.870554658564314   0.4331048242041751 1.0000   
         C         C         1.0       0.9619078159616462  0.8450001312047927  0.4488645994814755 1.0000   
         C         C         1.0       0.9549251586339161  0.8439757820939091  0.4854907821747289 1.0000   
         C         C         1.0       0.9645229859588248  0.8709640671975991  0.5037420672854914 1.0000   
         C         C         1.0       0.9886510799428349  0.8979039765113855  0.48785898445463627          1.0000   
         H         H         1.0       0.9933866734706807  0.8701436345518939  0.4042266716172207 1.0000   
         H         H         1.0       0.9538244144450391  0.8237702942428567  0.43570714495881835          1.0000   
         H         H         1.0       0.9718781066225692  0.8849965718343896  0.07334157762918081          1.0000   
         H         H         1.0       0.016550521200583423          0.9397813588210043 0.059492338431936576         1.0000   
         C         C         1.0       0.9974887413657916  0.8432977881105214  0.5435085211234859 1.0000   
         C         C         1.0       0.9642353092618856  0.8214482258680205  0.5452120634473346 1.0000   
         C         C         1.0       0.952676406577493   0.8059516686457296  0.5778958452946932 1.0000   
         C         C         1.0       0.973364929509375   0.8287712948630134  0.1375466006935967 1.0000   
         C         C         1.0       0.0038458641991689912         0.8518875991573437 0.14012653561491273          1.0000   
         C         C         1.0       0.019419568186081815          0.8637123791618844 0.10617036315990785          1.0000   
         C         C         1.0       0.9412222749954324  0.8144150496757391  0.5096221692573325 1.0000   
         C         C         1.0       0.9413741271979064  0.7868328063406967  0.49049171021802224          1.0000   
         C         C         1.0       0.9153004642671598  0.756019670109543   0.4946557955410444 1.0000   
         C         C         1.0       0.9138587411999731  0.733032084166387   0.47644103513298514          1.0000   
         C         C         1.0       0.9386481562053411  0.7391639499243267  0.4551401809561957 1.0000   
         C         C         1.0       0.966900658797333   0.7675345356703499  0.4549573658430955 1.0000   
         C         C         1.0       0.9689646912430481  0.7913523151787543  0.4743508194366559 1.0000   
         C         C         1.0       0.8935240266903641  0.8078907938267442  0.5480306378397057 1.0000   
         C         C         1.0       0.8639397933401926  0.8020844795306048  0.5518498942360208 1.0000   
         C         C         1.0       0.843787872326075   0.7927588641699161  0.52165973819239   1.0000   
         C         C         1.0       0.8532597820468658  0.7881276112311012  0.48712313720078454          1.0000   
         C         C         1.0       0.8824135857243873  0.7933984695092855  0.4842090595579679 1.0000   
         C         C         1.0       0.9043201393201283  0.8039562320307703  0.5144990607535398 1.0000   
         C         C         1.0       0.808347809558797   0.7874387441600297  0.5216544092560247 1.0000   
         C         C         1.0       0.743580571202958   0.6882734178579172  0.4976847764441781 1.0000   
         C         C         1.0       0.7790142280443261  0.7195869921500727  0.03461562088411063          1.0000   
         C         C         1.0       0.7963853832091383  0.7496936019866947  0.045488701149138056         1.0000   
         C         C         1.0       0.7840880983457819  0.7507423813909107  0.5112252573817466 1.0000   
         C         C         1.0       0.7670905999478915  0.7386543275758309  0.4782581676781081 1.0000   
         C         C         1.0       0.7458283789857374  0.7081282298455361  0.47193909332121603          1.0000   
         C         C         1.0       0.8107160862566167  0.811348103722454   0.49332231183577546          1.0000   
         C         C         1.0       0.8381165795887777  0.839083076302283   0.48332053774633177          1.0000   
         C         C         1.0       0.8374926860590575  0.8590369899953036  0.4599363244501301 1.0000   
         C         C         1.0       0.8080364955866265  0.8509406782054719  0.44401733137890487          1.0000   
         C         C         1.0       0.780707092695248   0.8237882404940511  0.45440305832694383          1.0000   
         C         C         1.0       0.782072573095169   0.8048177446776391  0.47946276808518384          1.0000   
         C         C         1.0       0.7642318394097654  0.7723975592027001  0.573023923225022  1.0000   
         C         C         1.0       0.7577580125238093  0.7929074060038142  0.11497320299997107          1.0000   
         C         C         1.0       0.7750092105424817  0.8193133828217273  0.1360499076584329 1.0000   
         C         C         1.0       0.8011698342936254  0.8249234352315461  0.6116931132833511 1.0000   
         C         C         1.0       0.8132958657986941  0.8187334510991247  0.5819577134306895 1.0000   
         C         C         1.0       0.7961953492047962  0.7925913542179894  0.5612184644142227 1.0000   
         H         H         1.0       0.009558508099077434          0.8556761483271866 0.5177709914844054 1.0000   
         H         H         1.0       0.9279639215875527  0.7881134327290354  0.5789832939783974 1.0000   
         H         H         1.0       0.9594290840228326  0.8178550284571418  0.16121368298056518          1.0000   
         H         H         1.0       0.04481350661729655           0.8828698654470282 0.10668187983786741          1.0000   
         H         H         1.0       0.8943596906632932  0.7486015723005962  0.510776031431408  1.0000   
         H         H         1.0       0.893498139363991   0.7109575956857458  0.4792773607898661 1.0000   
         H         H         1.0       0.9875609282176415  0.7735124333577961  0.4379857812947286 1.0000   
         H         H         1.0       0.9924648858366923  0.812192471647972   0.47477610762812505          1.0000   
         H         H         1.0       0.909982623179115   0.8194114915743638  0.5711133007620097 1.0000   
         H         H         1.0       0.8630128640429264  0.8199789312223632  0.1007036182771097 1.0000   
         H         H         1.0       0.838443064403357   0.781033932326524   0.46211036167055025          1.0000   
         H         H         1.0       0.8920993071375422  0.7917304959018794  0.4582578656733689 1.0000   
         H         H         1.0       0.7788567158835242  0.7039363642571127  0.05253051635107986          1.0000   
         H         H         1.0       0.8057326389962133  0.7558535126031223  0.07286965048505321          1.0000   
         H         H         1.0       0.7737008456900044  0.7532553536582075  0.45380855862407643          1.0000   
         H         H         1.0       0.7335230217680286  0.7007181638166206  0.4434469310803957 1.0000   
         H         H         1.0       0.8622890523567295  0.845380739983003   0.4935903711317446 1.0000   
         H         H         1.0       0.8601796783866416  0.8801895347049308  0.4518618023780275 1.0000   
         H         H         1.0       0.7570850059722631  0.8157296512974972  0.44330327302237454          1.0000   
         H         H         1.0       0.7604125402146272  0.7859263352085685  0.4875690480427481 1.0000   
         H         H         1.0       0.7461422452372323  0.7515398474642202  0.5560035959472635 1.0000   
         H         H         1.0       0.7325172969178915  0.7769766067638647  0.11942952056840275          1.0000   
         H         H         1.0       0.8140721784652009  0.8453973520983211  0.628605855067082  1.0000   
         H         H         1.0       0.8382531753623955  0.8338609846323799  0.5738505782182349 1.0000   
         C         C         1.0       0.921243564491517   0.7137553156121901  0.36084664243948245          1.0000   
         C         C         1.0       0.9003664706510935  0.6980804151680475  0.33172704230205263          1.0000   
         C         C         1.0       0.9100006688437232  0.705930808977803   0.29501843876609296          1.0000   
         C         C         1.0       0.9418776801367328  0.7318070159789545  0.28728516919235647          1.0000   
         C         C         1.0       0.9632701176984961  0.746134700232572   0.31654289400602376          1.0000   
         C         C         1.0       0.9536980456863174  0.737641964916492   0.3525920844345138 1.0000   
         H         H         1.0       0.8758591468006849  0.6786177514917348  0.33801824021179855          1.0000   
         H         H         1.0       0.8930594357176105  0.6933818302737718  0.27374395052478395          1.0000   
         H         H         1.0       0.9878718283742048  0.7640856137098746  0.30983476683141536          1.0000   
         H         H         1.0       0.9709228234524573  0.7501605721922013  0.37382171350466953          1.0000   
         C         C         1.0       0.979768850177262   0.7987386470827834  0.2568148222058398 1.0000   
         C         C         1.0       0.9813694647104149  0.777349953900084   0.23778911569109332          1.0000   
         C         C         1.0       0.0036961017696974796         0.7869578106636482 0.20920275992756268          1.0000   
         C         C         1.0       0.022143003162575337          0.8160254158104785 0.199760323117778  1.0000   
         C         C         1.0       0.022073669291355902          0.8376246612751623 0.21863641795985034          1.0000   
         C         C         1.0       0.998411296004628   0.828556847610525   0.2460937448260821 1.0000   
         C         C         1.0       0.9537443187664404  0.7413006365045431  0.24543312910023735          1.0000   
         C         C         1.0       0.9273331729212777  0.7371392913417956  0.21597327730271668          1.0000   
         C         C         1.0       0.9293214118486234  0.7323445554265883  0.17799275850550708          1.0000   
         C         C         1.0       0.9108753919387614  0.7351665479917049  0.15206988093403997          1.0000   
         C         C         1.0       0.8904822129421479  0.7429197502970286  0.16562427695046872          1.0000   
         C         C         1.0       0.8857950372466707  0.7441648911238452  0.20285803880646935          1.0000   
         C         C         1.0       0.9039954170703396  0.7425801605301713  0.22862086816138466          1.0000   
         C         C         1.0       0.9970466904274304  0.728246345805407   0.23758138193666406          1.0000   
         C         C         1.0       0.006550726982829547          0.712521329508368  0.21830464814524114          1.0000   
         C         C         1.0       0.9841515411721837  0.684906354357687   0.20162244484495997          1.0000   
         C         C         1.0       0.9523420998610863  0.6729062266388313  0.20713952761619003          1.0000   
         C         C         1.0       0.943024257823378   0.689253567457499   0.2256999072276034 1.0000   
         C         C         1.0       0.9656520578444836  0.7194452110946675  0.2370892582113021 1.0000   
         C         C         1.0       0.9956515452224314  0.6694756836144583  0.17253202890697314          1.0000   
         C         C         1.0       0.9947359066596648  0.7227372811636131  0.08052545476934236          1.0000   
         C         C         1.0       0.021473917209962723          0.7342062507875836 0.10319120343421577          1.0000   
         C         C         1.0       0.023218293909988308          0.7170303717375451 0.12930161059936274          1.0000   
         C         C         1.0       0.9965493332300537  0.6883696339628439  0.13701996592269527          1.0000   
         C         C         1.0       0.9685254950680507  0.6780357300282313  0.11545295556950301          1.0000   
         C         C         1.0       0.9685757434210174  0.6944702184225722  0.08646568356009166          1.0000   
         C         C         1.0       0.9719771681984783  0.6336818912573189  0.16332786082492218          1.0000   
         C         C         1.0       0.9536608919648465  0.6154277790525907  0.1927122919443424 1.0000   
         C         C         1.0       0.9276823516341843  0.5851173563678086  0.18659346775688784          1.0000   
         C         C         1.0       0.9244368102139108  0.572513830559847   0.15140683621430562          1.0000   
         C         C         1.0       0.9455652120506663  0.5890556879287071  0.12410714185061807          1.0000   
         C         C         1.0       0.9702020150504992  0.6191879244336493  0.12970193546804823          1.0000   
         C         C         1.0       0.04889208592806593           0.677061642934976  0.15393317755658226          1.0000   
         C         C         1.0       0.07620488288299798           0.678795140401935  0.1628713792138551 1.0000   
         C         C         1.0       0.0820929708587752  0.6724657705076466  0.19838031538685844          1.0000   
         C         C         1.0       0.06209344271308237           0.6696380882568133 0.22584164221834932          1.0000   
         C         C         1.0       0.03498293484490511           0.6694364314941749 0.21849580882760228          1.0000   
         C         C         1.0       0.02789083159510941           0.6734005817465383 0.18201408119449755          1.0000   
         H         H         1.0       0.9615529724278764  0.7930028053719534  0.2769208645010526 1.0000   
         H         H         1.0       0.0014810673762062354         0.7693584772187915 0.19345399411393438          1.0000   
         H         H         1.0       0.03793721204004874           0.8217966766640511 0.17596146928256468          1.0000   
         H         H         1.0       0.994951857618521   0.8443070938735187  0.2608982885804899 1.0000   
         H         H         1.0       0.9440170494142236  0.7255203236427258  0.16776408556731842          1.0000   
         H         H         1.0       0.9161362441726427  0.735351390358708   0.12163052359666666          1.0000   
         H         H         1.0       0.868263521260328   0.7484316223699792  0.2114897636877355 1.0000   
         H         H         1.0       0.9038393409503599  0.7491157514840152  0.2575214155912692 1.0000   
         H         H         1.0       0.014594175556217115          0.749393794780493  0.2526532562707549 1.0000   
         H         H         1.0       0.03144521062084249           0.7193348578483352 0.2167543434651531 1.0000   
         H         H         1.0       0.9313281245379101  0.6517766721674527  0.19314503661886548          1.0000   
         H         H         1.0       0.9180483685290943  0.6813046562364667  0.22934924867590686          1.0000   
         H         H         1.0       0.04192989790705948           0.7566987573882986 0.0994622132690821 1.0000   
         H         H         1.0       0.04439805736544966           0.7282495772539453 0.145568185255246  1.0000   
         H         H         1.0       0.9466830434737963  0.6569841681078253  0.1172555582723674 1.0000   
         H         H         1.0       0.9463173350837427  0.6876380394176761  0.07355849936000247          1.0000   
         H         H         1.0       0.9551728232291835  0.6258602923374414  0.22022819933741647          1.0000   
         H         H         1.0       0.9099929971689023  0.5723023711838396  0.20904901849535348          1.0000   
         H         H         1.0       0.9422690474542244  0.5793746419226267  0.09507203499906014          1.0000   
         H         H         1.0       0.9855341254138852  0.6316411431826778  0.1062482472078654 1.0000   
         H         H         1.0       0.04502983582188902           0.68055729079339   0.12508675862907065          1.0000   
         H         H         1.0       0.09262832170259494           0.6828221823953798 0.14052995044932057          1.0000   
         H         H         1.0       0.06641648586075566           0.668613548758313  0.2548854813794687 1.0000   
         H         H         1.0       0.02307206547497964           0.6698524846858827 0.24319586026687268          1.0000   
         C         C         1.0       0.91190811840669    0.2299307768088398  0.4686435660663443 1.0000   
         C         C         1.0       0.9172662353390971  0.2567766024529313  0.45596197814300143          1.0000   
         C         C         1.0       0.9378715953773606  0.27248627689116445           0.4273712133538977 1.0000   
         C         C         1.0       0.9501928354899608  0.2591960529973133  0.405844468163404  1.0000   
         C         C         1.0       0.9434135292360388  0.2317639303742225  0.4186736423721233 1.0000   
         C         C         1.0       0.9255983267701784  0.21814153076739193           0.4493174531295675 1.0000   
         H         H         1.0       0.9103156045033903  0.2677865256017802  0.4731051149948415 1.0000   
         H         H         1.0       0.9432249562152067  0.29358246224383744           0.41578542678970376          1.0000   
         H         H         1.0       0.9523337740649992  0.22058762420942968           0.40226700289779993          1.0000   
         H         H         1.0       0.9212555366048668  0.1966165054811341  0.4552880100275829 1.0000   
         C         C         1.0       0.002262011143211007          0.25284096486741914          0.3592983496959215 1.0000   
         C         C         1.0       0.9807877689396105  0.2576788369047645  0.3421824615168489 1.0000   
         C         C         1.0       0.9731103347498791  0.24890180885461757           0.30392200846222717          1.0000   
         C         C         1.0       0.9870322874094394  0.23744281753391    0.2854727161732839 1.0000   
         C         C         1.0       0.005847776701116247          0.23128355203103695          0.30371355135835887          1.0000   
         C         C         1.0       0.014856251362419304          0.24006664905125197          0.34047097142201505          1.0000   
         C         C         1.0       0.9648965129823278  0.27299566559682104           0.3642552843378136 1.0000   
         C         C         1.0       0.9935997666648232  0.308942474101044   0.36570592840399957          1.0000   
         C         C         1.0       0.003966261818693084          0.32374261438976265          0.3321256729762638 1.0000   
         C         C         1.0       0.026816098092833807          0.3545880670536563 0.32914409911128834          1.0000   
         C         C         1.0       0.03717982820544874           0.3723056999385152 0.36135332062029507          1.0000   
         C         C         1.0       0.025761488027196355          0.3573748159618339 0.3951506039050389 1.0000   
         C         C         1.0       0.007451570643042471          0.3258215770596057 0.39738176943895526          1.0000   
         C         C         1.0       0.908591913721068   0.23746154635268882           0.3330534674384963 1.0000   
         C         C         1.0       0.8827703394466577  0.23168511564266828           0.31441824820498765          1.0000   
         C         C         1.0       0.8789214377355079  0.25414907232212414           0.30286626799686645          1.0000   
         C         C         1.0       0.9027155493028138  0.28322411447992757           0.31232561233223155          1.0000   
         C         C         1.0       0.9283132471815381  0.2891153980319616  0.3328617227415108 1.0000   
         C         C         1.0       0.9342494060323634  0.2667471340195224  0.3432309703344351 1.0000   
         C         C         1.0       0.849063409185618   0.24385939152983555           0.2745981002928865 1.0000   
         C         C         1.0       0.8883499743881866  0.21884293712816094           0.18157292978807446          1.0000   
         C         C         1.0       0.8643992825875911  0.19708857248297548           0.20375281074672696          1.0000   
         C         C         1.0       0.8525398848728862  0.2054041864425765  0.231855367801525  1.0000   
         C         C         1.0       0.8634914282289469  0.2344370924546157  0.23902731914709144          1.0000   
         C         C         1.0       0.8858250110517955  0.25573617439744395           0.21468105418972158          1.0000   
         C         C         1.0       0.8977632683503272  0.2484991209245306  0.18565122088134814          1.0000   
         C         C         1.0       0.8405722410286622  0.26606413046007876           0.2600506353156987 1.0000   
         C         C         1.0       0.8428658702319715  0.28798513335656495           0.28312476040496487          1.0000   
         C         C         1.0       0.8367857679187961  0.30734925848107303           0.26862739153954324          1.0000   
         C         C         1.0       0.827907232162009   0.30682529373260237           0.2314846785181818 1.0000   
         C         C         1.0       0.8211075650537966  0.28154409956374576           0.20948464244939138          1.0000   
         C         C         1.0       0.828914237460555   0.26242221954260214           0.22408802859839716          1.0000   
         C         C         1.0       0.7919624500283614  0.1956488048700478  0.27034602354981124          1.0000   
         C         C         1.0       0.764039554637585   0.1728224883129692  0.28395639350816715          1.0000   
         C         C         1.0       0.7587276528558424  0.17132527870409356           0.3233577425679061 1.0000   
         C         C         1.0       0.7823953438747024  0.1928408245804473  0.34736614258097503          1.0000   
         C         C         1.0       0.810837114384278   0.21665097927813856           0.3330440914235537 1.0000   
         C         C         1.0       0.8166917992844022  0.21767709727992982           0.2939517501260985 1.0000   
         H         H         1.0       0.01008260213749268           0.25945572004039924          0.3876736545144989 1.0000   
         H         H         1.0       0.9604394937609352  0.2554534836136495  0.28563391464834004          1.0000   
         H         H         1.0       0.9783730755124628  0.2304421299622737  0.2560392714651071 1.0000   
         H         H         1.0       0.02587845806451816           0.23106121094673593          0.35697836985333786          1.0000   
         H         H         1.0       0.9919340171663029  0.31041280836860596           0.30548374297025527          1.0000   
         H         H         1.0       0.036159920004299684          0.3642315603002314 0.30309099011545815          1.0000   
         H         H         1.0       0.03476081965882516           0.3707471060029275 0.42119057551155853          1.0000   
         H         H         1.0       0.0022238864676629166         0.3141579176944397 0.42500013880632637          1.0000   
         H         H         1.0       0.9079907509171603  0.21841211525726853           0.3428380974627109 1.0000   
         H         H         1.0       0.8638099244866292  0.2074234102666892  0.3060527680049495 1.0000   
         H         H         1.0       0.8985066934771011  0.30049147771902274           0.30793460470993705          1.0000   
         H         H         1.0       0.9447569289855349  0.3124314192358247  0.3428968677024889 1.0000   
         H         H         1.0       0.8547146525107     0.17320066049374624           0.20106481042048555          1.0000   
         H         H         1.0       0.8372889466772422  0.18673087209254005           0.25051442318520895          1.0000   
         H         H         1.0       0.893538470630208   0.27853442018071756           0.22032069093189785          1.0000   
         H         H         1.0       0.9134561271507262  0.2671918222728846  0.1680367899932587 1.0000   
         H         H         1.0       0.846475352213304   0.28661683723539594           0.3125108985637186 1.0000   
         H         H         1.0       0.8394651276570816  0.3244180490768206  0.2858723697365564 1.0000   
         H         H         1.0       0.8082294986011622  0.2749855594430777  0.18318771424781513          1.0000   
         H         H         1.0       0.826119887277767   0.2448668720342379  0.20371788599004623          1.0000   
         H         H         1.0       0.7950856388246081  0.19689719636892197           0.2392106716707194 1.0000   
         H         H         1.0       0.7453732949774786  0.157003400897346   0.2641539469065665 1.0000   
         H         H         1.0       0.7781065111491826  0.1890245814080855  0.3781350980015049 1.0000   
         H         H         1.0       0.8292208431942053  0.23505573852837522           0.35162905676874223          1.0000   
         C         C         1.0       0.006510599427906216          0.11604870673371714          0.5423101981655482 1.0000   
         C         C         1.0       0.9913399412831463  0.12448945551654232           0.519630994129836  1.0000   
         C         C         1.0       0.9866552671500245  0.14589861806602403           0.5311810411613952 1.0000   
         C         C         1.0       0.9979353158636214  0.1610129792884659  0.5644024242700213 1.0000   
         C         C         1.0       0.02080781468194548           0.15755953680140478          0.582167931436377  1.0000   
         C         C         1.0       0.023050544049182164          0.134157368879825  0.5724731778367241 1.0000   
         H         H         1.0       0.9782234074275507  0.11214801307940109           0.4948588132186421 1.0000   
         H         H         1.0       0.9728967247781098  0.1486947017914036  0.5098830985753574 1.0000   
         H         H         1.0       0.03879574790632079           0.18038520362551458          0.12797504946195765          1.0000   
         H         H         1.0       0.03943004117528548           0.13568568064505682          0.11372684300083576          1.0000   
         C         C         1.0       0.9847266784690359  0.17611507205711607           0.14987679578626634          1.0000   
         C         C         1.0       0.003778764444149374          0.20418219034350463          0.13144690841863407          1.0000   
         C         C         1.0       0.018958301786408338          0.23039834330030845          0.15420566808168543          1.0000   
         C         C         1.0       0.016659265606622453          0.22926221735421604          0.19303779594273812          1.0000   
         C         C         1.0       0.9990772360588205  0.2006996141929828  0.20919794503269773          1.0000   
         C         C         1.0       0.9810005012849023  0.17398776289178555           0.1881200637166942 1.0000   
         C         C         1.0       0.9937251543573621  0.18742035445947988           0.5775281935324358 1.0000   
         C         C         1.0       0.959886374843328   0.18333730327619752           0.5667493745014259 1.0000   
         C         C         1.0       0.9587542484770858  0.20826301277697892           0.5695892063789423 1.0000   
         C         C         1.0       0.9355245070098598  0.20994285954667766           0.5514460232596673 1.0000   
         C         C         1.0       0.9103398390046159  0.18356403850051606           0.5356262470715809 1.0000   
         C         C         1.0       0.9084775172323898  0.156829028969274   0.5368303852105226 1.0000   
         C         C         1.0       0.931881447426498   0.15632164604337792           0.5552734948197519 1.0000   
         C         C         1.0       0.049687471425688745          0.2415410225247539 0.571956713179682  1.0000   
         C         C         1.0       0.06784039983401446           0.2689495695862381 0.5529545873898217 1.0000   
         C         C         1.0       0.0572937071458699  0.2718023605015064  0.5181580190311911 1.0000   
         C         C         1.0       0.032285963297417286          0.2455550392096109 0.5012789520985268 1.0000   
         C         C         1.0       0.015813388536664252          0.2186451942758056 0.5189452486014331 1.0000   
         C         C         1.0       0.02190116771364048           0.21696957266851025          0.5566826420543861 1.0000   
         C         C         1.0       0.06879316319031359           0.3032757051419934 0.49916346372181336          1.0000   
         C         C         1.0       0.0005516577737130213         0.32240105885031484          0.5431063022289675 1.0000   
         C         C         1.0       0.022509974540726452          0.31445943011849414          0.12266046342788453          1.0000   
         C         C         1.0       0.05091117158867675           0.319002182174915  0.1103223479269846 1.0000   
         C         C         1.0       0.04204798008781285           0.3082366977216371 0.5178709593719909 1.0000   
         C         C         1.0       0.015641696233437585          0.3004074097132963 0.4966755869247879 1.0000   
         C         C         1.0       0.9956394635909321  0.30878675101676295           0.5084881362971214 1.0000   
         C         C         1.0       0.07257467481767965           0.3055648466621818 0.4547499939659208 1.0000   
         C         C         1.0       0.07832725016235598           0.2877231843839703 0.4339360534341782 1.0000   
         C         C         1.0       0.08374424790265289           0.2900879419993119 0.39624455073059256          1.0000   
         C         C         1.0       0.08514310446581685           0.31230231246170664          0.37579232731097634          1.0000   
         C         C         1.0       0.07689488919484555           0.3303332372033939 0.3955168357367582 1.0000   
         C         C         1.0       0.07293503274684565           0.3282259951893556 0.43368715892937515          1.0000   
         C         C         1.0       0.11243143814890066           0.35963160316580306          0.5148329512968881 1.0000   
         C         C         1.0       0.13880638287161373           0.39761332166398705          0.12413790028117148          1.0000   
         C         C         1.0       0.16004274270308694           0.39234285867494234          0.1404509207708541 1.0000   
         C         C         1.0       0.16017185366468809           0.35188289054487953          0.5250019365285239 1.0000   
         C         C         1.0       0.1298922752216718  0.32718086733224105           0.5126240275429406 1.0000   
         C         C         1.0       0.10534389779521502           0.3311244089558331 0.5107422103497803 1.0000   
         H         H         1.0       0.9743618289132859  0.15529071416134982           0.13553617604433923          1.0000   
         H         H         1.0       0.031810858963744915          0.25284151262782184          0.14040375140700087          1.0000   
         H         H         1.0       0.029515109537279427          0.2501641646444092 0.21070711623845337          1.0000   
         H         H         1.0       0.9679533451958717  0.152872870392333   0.20134590949325062          1.0000   
         H         H         1.0       0.9788783728107409  0.2303902477907226  0.5794275391180123 1.0000   
         H         H         1.0       0.9378298924681894  0.2310097182962271  0.5523603549174309 1.0000   
         H         H         1.0       0.8895186910105666  0.13470145195646938           0.5228539262745567 1.0000   
         H         H         1.0       0.9297637381864639  0.13413940410136166           0.5590491960165027 1.0000   
         H         H         1.0       0.0745524815860723  0.2444542492857597  0.11538188356787843          1.0000   
         H         H         1.0       0.09980542575427354           0.29471476651060097          0.11105884630388353          1.0000   
         H         H         1.0       0.022226027608684307          0.2456047539122489 0.4748278547841426 1.0000   
         H         H         1.0       0.9938691436967283  0.19919230675745372           0.5050456078478027 1.0000   
         H         H         1.0       0.016275573958633993          0.31182681641561066          0.15149317891969635          1.0000   
         H         H         1.0       0.06727582697946666           0.3195656636752739 0.13092471077279197          1.0000   
         H         H         1.0       0.008164878683722732          0.28612211613080146          0.47099865458391654          1.0000   
         H         H         1.0       0.9741555565991536  0.3028256586987037  0.49280567918981544          1.0000   
         H         H         1.0       0.0785388462711778  0.2700803826318331  0.4481146472486811 1.0000   
         H         H         1.0       0.09056922897359021           0.2763108507247529 0.38250562318252745          1.0000   
         H         H         1.0       0.07425940379479279           0.3465637535452184 0.37993796811609043          1.0000   
         H         H         1.0       0.0661416493706608  0.34166025946649786           0.44628844093163667          1.0000   
         H         H         1.0       0.0950244770484936  0.36388059242120013           0.5062556708313849 1.0000   
         H         H         1.0       0.13699758695237915           0.41609243788007466          0.13358169687298274          1.0000   
         H         H         1.0       0.17836967378374355           0.3476882620184195 0.531449479859754  1.0000   
         H         H         1.0       0.12409373315945449           0.30525326640244094          0.5076960183014237 1.0000   
         C         C         1.0       0.38870878118904356           0.5910085140034964 0.3894247670712646 1.0000   
         C         C         1.0       0.38810750298886953           0.5751203877239647 0.35853372587791577          1.0000   
         C         C         1.0       0.3673579681297431  0.5445205468038279  0.3557620686482822 1.0000   
         C         C         1.0       0.3426938959409253  0.5294096675134913  0.38237608602064593          1.0000   
         C         C         1.0       0.3391416725686609  0.547160687597628   0.40863611953549084          1.0000   
         C         C         1.0       0.3619805282227313  0.578173565797641   0.41132511960473517          1.0000   
         H         H         1.0       0.4084392915130799  0.585050074545058   0.3396304479021791 1.0000   
         H         H         1.0       0.3705492989069467  0.5313739363244536  0.3344630944031247 1.0000   
         H         H         1.0       0.3198418070137604  0.5365299655926966  0.4279676864914619 1.0000   
         H         H         1.0       0.36123410396017075           0.5929371431311725 0.43127889885959575          1.0000   
         C         C         1.0       0.3461943918283463  0.5028140065090098  0.45453169798584714          1.0000   
         C         C         1.0       0.319628404533347   0.4845197762098192  0.4315199324713419 1.0000   
         C         C         1.0       0.2921885706521553  0.4595846724900846  0.44740905424971333          1.0000   
         C         C         1.0       0.28991767421653203           0.4529866638141119 0.48443443607838105          1.0000   
         C         C         1.0       0.31623961542040524           0.47258958667449785          0.5078483252624156 1.0000   
         C         C         1.0       0.3444398621534956  0.49676629798341765           0.4921245272175815 1.0000   
         C         C         1.0       0.32218320865622285           0.4934886459656619 0.38758494681148953          1.0000   
         C         C         1.0       0.3380037361079761  0.477866436159313   0.37111799349052516          1.0000   
         C         C         1.0       0.318017110661235   0.44756076206210105           0.3583441639752195 1.0000   
         C         C         1.0       0.3302747257457092  0.431917041643933   0.34347277482350164          1.0000   
         C         C         1.0       0.3620309359415519  0.44489978255547397           0.3452990248015887 1.0000   
         C         C         1.0       0.38230390527071273           0.4745757229200685 0.3548238687205785 1.0000   
         C         C         1.0       0.3710600940021155  0.49141364440378793           0.3698929022812169 1.0000   
         C         C         1.0       0.26675096902647244           0.4864139475004926 0.3864754014545461 1.0000   
         C         C         1.0       0.2397272605578127  0.48236795168556323           0.37206098665553267          1.0000   
         C         C         1.0       0.23257174092780364           0.4743562355301284 0.3340195364194211 1.0000   
         C         C         1.0       0.25410582837978496           0.47247819364157745          0.3132936216765365 1.0000   
         C         C         1.0       0.2821632541094127  0.47835912083149446           0.3286987368982622 1.0000   
         C         C         1.0       0.289198584304986   0.48528326037850605           0.36635632312111865          1.0000   
         C         C         1.0       0.20055878718328352           0.4683613095305995 0.3143975010475652 1.0000   
         C         C         1.0       0.14504780633305223           0.3695348295667075 0.3179585537148076 1.0000   
         C         C         1.0       0.14726423564067725           0.38658783347877623          0.34850459709339165          1.0000   
         C         C         1.0       0.16262453501231006           0.4174264798438753 0.34689811214036365          1.0000   
         C         C         1.0       0.17854871224120183           0.4323229300396224 0.315297237259217  1.0000   
         C         C         1.0       0.1797882742436905  0.41565954128351335           0.28547460215877707          1.0000   
         C         C         1.0       0.16283134448112854           0.38342732150169895          0.28662044778232837          1.0000   
         C         C         1.0       0.20528611551554593           0.4814864902927035 0.273203803126554  1.0000   
         C         C         1.0       0.23409299497644576           0.5057915339941406 0.2595127090711099 1.0000   
         C         C         1.0       0.23658011609554674           0.5186536373844928 0.2250933219377748 1.0000   
         C         C         1.0       0.21081838772193134           0.5057928654392774 0.20187241127589708          1.0000   
         C         C         1.0       0.18195300523746666           0.4811296896113883 0.2155419877142504 1.0000   
         C         C         1.0       0.179055483346043   0.47003545460443763           0.24979223205581422          1.0000   
         C         C         1.0       0.15598726245188027           0.47490683829447516          0.33788717812946967          1.0000   
         C         C         1.0       0.1469418016759881  0.49467973209646776           0.35060366146258803          1.0000   
         C         C         1.0       0.16965939518379086           0.525391032054394  0.3548047816661152 1.0000   
         C         C         1.0       0.20193673874000836           0.5369968677958759 0.34930297484131145          1.0000   
         C         C         1.0       0.21000403998282882           0.517869141035843  0.33993982862789734          1.0000   
         C         C         1.0       0.1880748930676083  0.48572908683907984           0.33611608290973405          1.0000   
         H         H         1.0       0.36875455456848905           0.521498680026267  0.4431741936063153 1.0000   
         H         H         1.0       0.27230563796120927           0.4434517406364194 0.4300585243850814 1.0000   
         H         H         1.0       0.2713402760010325  0.4310392060048265  0.49536593909351834          1.0000   
         H         H         1.0       0.3640384065266611  0.511255203582424   0.5111282310964904 1.0000   
         H         H         1.0       0.29166271039920566           0.4330913106473291 0.3607990415985745 1.0000   
         H         H         1.0       0.3135793898638335  0.4092992174116342  0.33353506970601055          1.0000   
         H         H         1.0       0.40684131619612535           0.4826063215143799 0.35354569035215755          1.0000   
         H         H         1.0       0.38808581206654724           0.5137642861399705 0.38384707582856037          1.0000   
         H         H         1.0       0.2728017259198305  0.49362208415603104           0.41458555148916026          1.0000   
         H         H         1.0       0.22240499040492334           0.48316319451632017          0.38970341180271023          1.0000   
         H         H         1.0       0.24979421557270787           0.46809614870950333          0.28307016096257326          1.0000   
         H         H         1.0       0.2983789198458311  0.4762035139440605  0.31250233153153534          1.0000   
         H         H         1.0       0.13617112093327133           0.37693005931111145          0.37456111654577506          1.0000   
         H         H         1.0       0.16066260433763846           0.4305457374181026 0.36791554140609123          1.0000   
         H         H         1.0       0.18969449635305874           0.42359316199258207          0.25841651353393014          1.0000   
         H         H         1.0       0.16062376240862625           0.37001032853483673          0.2617770460297384 1.0000   
         H         H         1.0       0.2559812746637429  0.5181452285244375  0.27772231279012904          1.0000   
         H         H         1.0       0.2599402608903212  0.5367020743329985  0.21723739915800436          1.0000   
         H         H         1.0       0.16109594852954998           0.4745857997454753 0.1993516465645629 1.0000   
         H         H         1.0       0.15374408587698005           0.4522448094997615 0.25898391071252286          1.0000   
         H         H         1.0       0.1399703642842637  0.4502884649793504  0.33224243381322127          1.0000   
         H         H         1.0       0.12180550082245847           0.484658601138935  0.36177650932246364          1.0000   
         H         H         1.0       0.2208869482569603  0.5593822912621315  0.35753463866840696          1.0000   
         H         H         1.0       0.23498892490822723           0.5279463085869225 0.33788179144466807          1.0000   
         C         C         1.0       0.38235184728396193           0.4455547655771313 0.25943429151488395          1.0000   
         C         C         1.0       0.349682557940651   0.42443359383702006           0.2532652904860843 1.0000   
         C         C         1.0       0.33400140999822775           0.42788899295908217          0.22452293322018382          1.0000   
         C         C         1.0       0.3496718450971966  0.45289625897398883           0.2012911024246408 1.0000   
         C         C         1.0       0.382190669278027   0.47336953895191886           0.20810435858380333          1.0000   
         C         C         1.0       0.39870200732167277           0.4693578941995122 0.23526293357562883          1.0000   
         H         H         1.0       0.3363387102035357  0.4053212285555126  0.27355452074292114          1.0000   
         H         H         1.0       0.3097535910628721  0.4059855422729585  0.22189923565381658          1.0000   
         H         H         1.0       0.3989290482413763  0.49187272952143274           0.18871000463557264          1.0000   
         H         H         1.0       0.4252318180448649  0.4849594160996685  0.24043578157469944          1.0000   
         C         C         1.0       0.3558116045058895  0.5080507109041723  0.1591549681273612 1.0000   
         C         C         1.0       0.35252303269358287           0.48304997740806366          0.1411429219306621 1.0000   
         C         C         1.0       0.35273730214456206           0.48242885811859043          0.10091557431540175          1.0000   
         C         C         1.0       0.33838080641710555           0.4404490286769654 0.6151475569292819 1.0000   
         C         C         1.0       0.33577695378586675           0.46404447961809   0.6150847253595395 1.0000   
         C         C         1.0       0.35776853719271945           0.5311036063555726 0.13888810480375627          1.0000   
         C         C         1.0       0.33281165935505147           0.45121910431699014          0.16349100190554947          1.0000   
         C         C         1.0       0.29739677041602663           0.4448573848860277 0.16695125565158228          1.0000   
         C         C         1.0       0.28073915749984585           0.44053511944722834          0.13448657601020417          1.0000   
         C         C         1.0       0.253115156937121   0.44018726907572    0.1357769543199905 1.0000   
         C         C         1.0       0.24084877115707407           0.4413943530762645 0.1690386893186409 1.0000   
         C         C         1.0       0.25672197734271307           0.4454596831280987 0.20216548710270502          1.0000   
         C         C         1.0       0.2851868590151737  0.44748550104315815           0.20090548484405252          1.0000   
         C         C         1.0       0.3620817478908708  0.4309886244056381  0.13258548146835816          1.0000   
         C         C         1.0       0.36520474329565217           0.40842070901694044          0.11948145182884755          1.0000   
         C         C         1.0       0.3397069938449852  0.37880424211678015           0.11766796804868684          1.0000   
         C         C         1.0       0.31000896495580305           0.3724589533481953 0.12499292307357605          1.0000   
         C         C         1.0       0.3052045549970621  0.39443942664624093           0.14022507653838043          1.0000   
         C         C         1.0       0.3323846060016576  0.42442764786710263           0.14151525984077457          1.0000   
         C         C         1.0       0.3445742653445517  0.3545424222283619  0.09675798442685268          1.0000   
         C         C         1.0       0.3352000729209093  0.35689181202416337           0.5457739398227947 1.0000   
         C         C         1.0       0.3551589578038403  0.3662395622571009  0.5763191262189024 1.0000   
         C         C         1.0       0.34765979548855713           0.3471680248349265 0.6057265249991066 1.0000   
         C         C         1.0       0.3175052054768008  0.31983002237289376           0.6080563231364413 1.0000   
         C         C         1.0       0.29678004653958645           0.3125218577177282 0.577858135518697  1.0000   
         C         C         1.0       0.30459349332541935           0.330089530023595  0.5474352941981833 1.0000   
         C         C         1.0       0.3203382045251828  0.3178524454628147  0.10300900913291426          1.0000   
         C         C         1.0       0.3011659770525578  0.30520581847766926           0.1341479770507279 1.0000   
         C         C         1.0       0.28035415502984357           0.2747928810406484 0.13797199995218504          1.0000   
         C         C         1.0       0.24060031873957832           0.20274205201521756          0.6280876939406798 1.0000   
         C         C         1.0       0.26519485599637377           0.22034878989431483          0.603136137503073  1.0000   
         C         C         1.0       0.2843155699524707  0.251338721088719   0.6067885121341217 1.0000   
         C         C         1.0       0.4006179606345008  0.3632691773650873  0.08063633678925619          1.0000   
         C         C         1.0       0.43143219439169883           0.37332548144554484          0.09354051498582816          1.0000   
         C         C         1.0       0.43881627768391057           0.3790947864957358 0.1309719770023278 1.0000   
         C         C         1.0       0.4154873470759972  0.3723943787584927  0.15624996539499422          1.0000   
         C         C         1.0       0.38586547073924693           0.3627874368470284 0.14509636248324118          1.0000   
         C         C         1.0       0.3782136899942466  0.35964045368663083           0.10642831780226591          1.0000   
         H         H         1.0       0.3541265262674723  0.5074038468694978  0.1899522374278986 1.0000   
         H         H         1.0       0.34495251753261735           0.4617541426858601 0.08388617246710783          1.0000   
         H         H         1.0       0.3495983565298658  0.4376586943828156  0.5912907784501117 1.0000   
         H         H         1.0       0.3588393384449133  0.5494408673925673  0.1555892463994545 1.0000   
         H         H         1.0       0.2871168446424699  0.4363452319851483  0.10680044189915204          1.0000   
         H         H         1.0       0.23377675996351774           0.38521358051147736          0.5685416955489407 1.0000   
         H         H         1.0       0.2462833316040091  0.4430176849997756  0.230068574073837  1.0000   
         H         H         1.0       0.3000125555012249  0.45456011343860836           0.22669740146488504          1.0000   
         H         H         1.0       0.3837815271559621  0.4548590437668843  0.1334474719513602 1.0000   
         H         H         1.0       0.38924465728109636           0.4153257294144842 0.11105412233028829          1.0000   
         H         H         1.0       0.28890221349106876           0.3486867151720581 0.12233069894166033          1.0000   
         H         H         1.0       0.2814065802681202  0.3867078730793061  0.15197843663461388          1.0000   
         H         H         1.0       0.3773430780550287  0.3877669237758576  0.5755762661082322 1.0000   
         H         H         1.0       0.39284173936066424           0.40115267994795833          0.05243146244530528          1.0000   
         H         H         1.0       0.27320324798047463           0.2922181017133086 0.5780771735846341 1.0000   
         H         H         1.0       0.28615990468340313           0.321468497004192  0.5261937903345899 1.0000   
         H         H         1.0       0.30369180178437255           0.32134250300882755          0.1558700789784679 1.0000   
         H         H         1.0       0.2635042553543143  0.2663008419632061  0.16161951261713714          1.0000   
         H         H         1.0       0.2686850571180564  0.20941130809172556           0.5782966030931529 1.0000   
         H         H         1.0       0.301269781703862   0.26356668998869326           0.5843936713609913 1.0000   
         H         H         1.0       0.3560074063158711  0.30006190311240366           0.6229108318703271 1.0000   
         H         H         1.0       0.45033571598639    0.38054430782717075           0.07373610334494418          1.0000   
         H         H         1.0       0.4223006042135015  0.3785976047673497  0.18663057703668265          1.0000   
         H         H         1.0       0.3705337633521653  0.36385096430150077           0.16534581955801492          1.0000   
         C         C         1.0       0.37875209093323114           0.8787765728556319 0.3258100096690622 1.0000   
         C         C         1.0       0.36902031292684706           0.8926493879159604 0.3023366263867311 1.0000   
         C         C         1.0       0.36197689881652484           0.9104360031374814 0.31732327452448195          1.0000   
         C         C         1.0       0.36434971470145283           0.9173520847185352 0.3560166821073699 1.0000   
         C         C         1.0       0.38161735231012084           0.9092850553408076 0.3776610547679285 1.0000   
         C         C         1.0       0.38549746119523287           0.8865221179800102 0.3639554030434576 1.0000   
         H         H         1.0       0.3643433621135714  0.8862624578345734  0.27289015105474945          1.0000   
         H         H         1.0       0.3497360857683075  0.9180318651960279  0.30068280916894485          1.0000   
         H         H         1.0       0.38576156509415993           0.9155008408243636 0.4066338633655994 1.0000   
         H         H         1.0       0.39240612315479295           0.8745291967607134 0.381922083517121  1.0000   
         C         C         1.0       0.31109484562116047           0.8684285605174399 0.39791436962483   1.0000   
         C         C         1.0       0.3207382645100046  0.8989272015782591  0.4056833783596102 1.0000   
         C         C         1.0       0.3091142010922617  0.9041579350733129  0.43858295783525103          1.0000   
         C         C         1.0       0.29855204490750964           0.8845441777383145 0.4670184945509632 1.0000   
         C         C         1.0       0.29420330652565774           0.8569310079201543 0.46253235117514485          1.0000   
         C         C         1.0       0.2979129781989357  0.8482430209033102  0.42724857513393266          1.0000   
         C         C         1.0       0.3420580146496232  0.9256339953042543  0.37806054797791017          1.0000   
         C         C         1.0       0.31784672964904526           0.9284698540540813 0.3538261815429777 1.0000   
         C         C         1.0       0.3152056993411404  0.9528304387084033  0.3597157990801473 1.0000   
         C         C         1.0       0.2983281008217878  0.95962050805589    0.3369072592473045 1.0000   
         C         C         1.0       0.2797209866625416  0.9388336692875963  0.30885247543636013          1.0000   
         C         C         1.0       0.2767996861660189  0.9120913916555139  0.3052484389363768 1.0000   
         C         C         1.0       0.2963701714384604  0.9086700783613522  0.32773099221076507          1.0000   
         C         C         1.0       0.3769204113556972  0.9647544547162072  0.43294430474138257          1.0000   
         C         C         1.0       0.40309212725556903           0.991588909945329  0.44486665823557253          1.0000   
         C         C         1.0       0.4248556294433799  0.014267469589803738         0.4205723639828609 1.0000   
         C         C         1.0       0.41855129890510234           0.009358483051019384         0.3820868340621871 1.0000   
         C         C         1.0       0.3917559603813749  0.9820046216979086  0.3696147974911104 1.0000   
         C         C         1.0       0.37191286176569643           0.9580119305640119 0.3945358023276102 1.0000   
         C         C         1.0       0.4560424072940257  0.04602033200384503           0.4369377251768418 1.0000   
         C         C         1.0       0.42991883198379743           0.10676993181884198          0.39134936232133993          1.0000   
         C         C         1.0       0.4097684707402179  0.08394228137370807           0.41614813031283765          1.0000   
         C         C         1.0       0.41983987759842    0.06623203322531124           0.43102078805689265          1.0000   
         C         C         1.0       0.4474895022331854  0.06923800888815057           0.4201853389645553 1.0000   
         C         C         1.0       0.46484817410257206           0.08936658933387154          0.3903691777628912 1.0000   
         C         C         1.0       0.45490234123736245           0.10691462330586399          0.3763686493319211 1.0000   
         C         C         1.0       0.48851319769653306           0.052643501146544924         0.42250874149972745          1.0000   
         C         C         1.0       0.4922158250291062  0.030329971117378784         0.4075885358187684 1.0000   
         C         C         1.0       0.5222252927634697  0.03735159382991493           0.3985594304833335 1.0000   
         C         C         1.0       0.5490600623598028  0.0655431298943423  0.4039995869000406 1.0000   
         C         C         1.0       0.5465889573376201  0.0881338995159815  0.418335465809134  1.0000   
         C         C         1.0       0.5173817021272447  0.08202919003247544           0.4292395605935539 1.0000   
         C         C         1.0       0.4622063688387255  0.07176241518272208           0.5013828037305387 1.0000   
         C         C         1.0       0.4670939896088904  0.07531290064337282           0.5397136504928446 1.0000   
         C         C         1.0       0.4670029347030711  0.05326308613531738           0.5601468753924363 1.0000   
         C         C         1.0       0.462786444781743   0.02917709231514065           0.5410397513038471 1.0000   
         C         C         1.0       0.46109760798233645           0.027547493632197773         0.5024085604578139 1.0000   
         C         C         1.0       0.4596068907499166  0.04851352657875463           0.4814344543788977 1.0000   
         H         H         1.0       0.3144512702651134  0.8614712524295491  0.37155616743034675          1.0000   
         H         H         1.0       0.31417404420563927           0.9271622513100659 0.44517243181039506          1.0000   
         H         H         1.0       0.29589026032155624           0.8935286574010961 0.4950843717511978 1.0000   
         H         H         1.0       0.2908326846427703  0.8237871011458325  0.4234800838684914 1.0000   
         H         H         1.0       0.3323118100071242  0.9697476863589776  0.3780488357223969 1.0000   
         H         H         1.0       0.30119046086279916           0.9809035334571561 0.33649954134177235          1.0000   
         H         H         1.0       0.26278041166545146           0.8958753470992439 0.2831310327162567 1.0000   
         H         H         1.0       0.2944381281278008  0.8875504268490819  0.3242588412872492 1.0000   
         H         H         1.0       0.3631075944842636  0.9476342435760556  0.4550699038133905 1.0000   
         H         H         1.0       0.4061433088398131  0.9964865507263065  0.47517360511261464          1.0000   
         H         H         1.0       0.43191712393337484           0.02758207955113301          0.36168835033382907          1.0000   
         H         H         1.0       0.3891956157975939  0.979810836439619   0.33980555631995674          1.0000   
         H         H         1.0       0.3904852587555984  0.08230152389392043           0.4313424690961911 1.0000   
         H         H         1.0       0.4061786885891947  0.049935331204157496         0.4545226939157634 1.0000   
         H         H         1.0       0.48525520416699625           0.09131447714517749          0.3788530364133761 1.0000   
         H         H         1.0       0.46943429457756786           0.12439176095966009          0.354523411013304  1.0000   
         H         H         1.0       0.4711387906578116  0.008702703734345674         0.40057686493840844          1.0000   
         H         H         1.0       0.5244901220801887  0.019698298679540205         0.3871072403640481 1.0000   
         H         H         1.0       0.5681846656473887  0.10853705066747832           0.42527717493244743          1.0000   
         H         H         1.0       0.5141698780167712  0.10050581151918259           0.4401649902530325 1.0000   
         H         H         1.0       0.46097362851760687           0.08935861925902921          0.4878636942195689 1.0000   
         H         H         1.0       0.46856321489719843           0.09541584246279733          0.5531924837405815 1.0000   
         H         H         1.0       0.46266418855299923           0.011393671660909321         0.5583602697875878 1.0000   
         H         H         1.0       0.4595472858944274  0.0090486975289914  0.4877002385583619 1.0000   
         C         C         1.0       0.27136149658201464           0.9506565194078612 0.20390741448231023          1.0000   
         C         C         1.0       0.2775961010727831  0.9708233003468597  0.17832971109438558          1.0000   
         C         C         1.0       0.2692667700236692  0.962379070191258   0.14054400973124936          1.0000   
         C         C         1.0       0.2502038427549485  0.9312309472681255  0.13001550225272823          1.0000   
         C         C         1.0       0.2406865162418803  0.9100059826358119  0.1576810602926432 1.0000   
         C         C         1.0       0.25239640046520523           0.9196304322092369 0.19443146277941065          1.0000   
         H         H         1.0       0.29155719648869366           0.9956644246752646 0.18510601928180204          1.0000   
         H         H         1.0       0.2803947512703233  0.981123454336259   0.12211424134321279          1.0000   
         H         H         1.0       0.22734498039863635           0.8865744259347628 0.15179568107853075          1.0000   
         H         H         1.0       0.24712373690408598           0.9018090054878903 0.2123338221177891 1.0000   
         C         C         1.0       0.2718380775625648  0.8930588827900746  0.09235826556216731          1.0000   
         C         C         1.0       0.24589009116301414           0.8932433880314691 0.07756158481160867          1.0000   
         C         C         1.0       0.2098610762815056  0.8513848126542475  0.5349923272296069 1.0000   
         C         C         1.0       0.22039198982422956           0.8358593796087787 0.5199451063016322 1.0000   
         C         C         1.0       0.2460692249859593  0.8361594806018089  0.5344053566164685 1.0000   
         C         C         1.0       0.2600459034499806  0.8533954889838933  0.5672604002085427 1.0000   
         C         C         1.0       0.24086832685418758           0.919139024883169  0.08855468450802606          1.0000   
         C         C         1.0       0.2630744505643829  0.9443878094570389  0.05562979580444205          1.0000   
         C         C         1.0       0.2471394358868934  0.9254642959688332  0.5217368466578214 1.0000   
         C         C         1.0       0.27352578445373865           0.9451824756981112 0.4993655839526359 1.0000   
         C         C         1.0       0.2979069730196954  0.9786214791131093  0.9939302501744993 1.0000   
         C         C         1.0       0.3136451674618738  0.979926640190866   0.027344885168375962         1.0000   
         C         C         1.0       0.29634223147855915           0.9633881394473678 0.05797125966285188          1.0000   
         C         C         1.0       0.17844447663778265           0.8827439882417402 0.09451713949891927          1.0000   
         C         C         1.0       0.14936142083520063           0.8734932866389927 0.07858003315497086          1.0000   
         C         C         1.0       0.1453230354308618  0.8945198289168249  0.062461676610210404         1.0000   
         C         C         1.0       0.1687895676799991  0.9245231864803676  0.06944372459432246          1.0000   
         C         C         1.0       0.1985749435347733  0.9328020420490375  0.08256990157437616          1.0000   
         C         C         1.0       0.2056165133118595  0.912100606111633   0.08967804605314456          1.0000   
         C         C         1.0       0.11881904245547747           0.8849868968575039 0.030513730304682737         1.0000   
         C         C         1.0       0.17823720610444968           0.8738126251312476 0.4148502347160108 1.0000   
         C         C         1.0       0.16227588330490242           0.8469065340644519 0.4370012883055243 1.0000   
         C         C         1.0       0.13991527071492932           0.8436307937479498 0.4621990090310635 1.0000   
         C         C         1.0       0.13142129294684443           0.8639972508866368 0.46479269217150787          1.0000   
         C         C         1.0       0.14695076171575724           0.8888157998920456 0.4417103973176054 1.0000   
         C         C         1.0       0.16900813513596222           0.8934167871529325 0.4178449155358393 1.0000   
         C         C         1.0       0.09045658924802336           0.8789858483830038 0.4916623506554037 1.0000   
         C         C         1.0       0.10055772669769958           0.9178540979955047 0.059209348005254674         1.0000   
         C         C         1.0       0.07912625508588134           0.9148600774762893 0.510168345002898  1.0000   
         C         C         1.0       0.06838982839797958           0.9141092856207861 0.47411635742489255          1.0000   
         C         C         1.0       0.06631546525517984           0.8934496074740943 0.44792258566771465          1.0000   
         C         C         1.0       0.07670467384560675           0.8757260644722147 0.4576047829405755 1.0000   
         C         C         1.0       0.06273403706887848           0.8371119922751137 0.013639489714572184         1.0000   
         C         C         1.0       0.036851624694742124          0.8093057785446559 0.021447552034558948         1.0000   
         C         C         1.0       0.028566822979641415          0.7996523945970321 0.05739847106322737          1.0000   
         C         C         1.0       0.047923666467083015          0.8175370732227839 0.08715549304547099          1.0000   
         C         C         1.0       0.07543583481873872           0.8455484749548592 0.08005472464471719          1.0000   
         C         C         1.0       0.0840506061994093  0.8544768502164227  0.04193071632820189          1.0000   
         H         H         1.0       0.28894644450402296           0.9119412092900562 0.11357850265376898          1.0000   
         H         H         1.0       0.1909956717603851  0.8504585431792749  0.5204072925547745 1.0000   
         H         H         1.0       0.20721091547993967           0.822337449132922  0.4962708896145111 1.0000   
         H         H         1.0       0.27881917338229195           0.8528850258348957 0.5798843657771046 1.0000   
         H         H         1.0       0.22493166703902598           0.9130549388586682 0.5065780438744496 1.0000   
         H         H         1.0       0.2690030161211485  0.9487257476568612  0.4709640694026222 1.0000   
         H         H         1.0       0.3387847938822854  0.9965568388701939  0.032328487467798254         1.0000   
         H         H         1.0       0.3091317660006269  0.9662438268745718  0.0839155693407827 1.0000   
         H         H         1.0       0.18085073965164458           0.8646718283546899 0.10276499921225493          1.0000   
         H         H         1.0       0.12983419909873664           0.8506734924811364 0.0749750678312362 1.0000   
         H         H         1.0       0.16573979056829294           0.9425299466758806 0.06370726811339299          1.0000   
         H         H         1.0       0.21882654183202768           0.9565902874873193 0.08276111672775088          1.0000   
         H         H         1.0       0.16549836077918698           0.8288759235455659 0.43230256434929076          1.0000   
         H         H         1.0       0.12596831995884783           0.8221940669772192 0.47826388568049394          1.0000   
         H         H         1.0       0.14380627499530432           0.9076136216707745 0.44370703040637677          1.0000   
         H         H         1.0       0.18091256421642404           0.9136011811908693 0.40105976920029124          1.0000   
         H         H         1.0       0.10482770624092486           0.9122702561610482 0.0859113107013576 1.0000   
         H         H         1.0       0.0895287516395753  0.9490716207415635  0.07955559816226399          1.0000   
         H         H         1.0       0.057487484991444626          0.8933123532138123 0.4208993636228473 1.0000   
         H         H         1.0       0.08082703220826004           0.8640808260178748 0.4360118629500274 1.0000   
         H         H         1.0       0.07472157245051458           0.810746899680463  0.4512963519509726 1.0000   
         H         H         1.0       0.019274186523149828          0.793038475731244  0.9984511241996487 1.0000   
         H         H         1.0       0.041958488279618456          0.8105619998240072 0.11408284174154662          1.0000   
         H         H         1.0       0.09167684868679138           0.8582391871940442 0.1019755262272024 1.0000   
         C         C         1.0       0.7614330632639428  0.29692699110362397           0.21778624228293816          1.0000   
         C         C         1.0       0.7412469403746259  0.2706161309821673  0.1978725260385172 1.0000   
         C         C         1.0       0.7197801743256603  0.2447804689272484  0.21543129500942806          1.0000   
         C         C         1.0       0.7187398817609675  0.24402437813040376           0.2536583966201996 1.0000   
         C         C         1.0       0.7355328995626452  0.27113706943705496           0.273782065344495  1.0000   
         C         C         1.0       0.757880319518279   0.29743521368486303           0.25604052747737327          1.0000   
         H         H         1.0       0.747199516441062   0.2695565570308778  0.16808077113140135          1.0000   
         H         H         1.0       0.7056503945851521  0.22556654242095875           0.1979090020116035 1.0000   
         H         H         1.0       0.729742306306653   0.27019799233584296           0.3027494894862254 1.0000   
         H         H         1.0       0.7752012699305392  0.31566160285653294           0.2750290791461261 1.0000   
         C         C         1.0       0.7432621795862684  0.23085417193306804           0.32889067546036777          1.0000   
         C         C         1.0       0.7108877461823527  0.21178775626285176           0.31739193644747704          1.0000   
         C         C         1.0       0.6877070426481422  0.1906346526228909  0.3430873874849024 1.0000   
         C         C         1.0       0.6967926472947892  0.18821600844428304           0.37820715597645654          1.0000   
         C         C         1.0       0.7295197723993427  0.20982576584085263           0.3897020564999557 1.0000   
         C         C         1.0       0.7513465377090884  0.23205254132927183           0.3664560580645494 1.0000   
         C         C         1.0       0.6974995778271501  0.21454950330143757           0.2772261518876676 1.0000   
         C         C         1.0       0.6875609336352285  0.18280258082607515           0.25582355636636206          1.0000   
         C         C         1.0       0.6575243490453307  0.1553161945281414  0.263511622923254  1.0000   
         C         C         1.0       0.6506596141721847  0.12765921767636948           0.25301952441646614          1.0000   
         C         C         1.0       0.6735348503961259  0.12748372163808427           0.23374983251939796          1.0000   
         C         C         1.0       0.7010693186639     0.15218705707506286           0.223214041806469  1.0000   
         C         C         1.0       0.7106230190791012  0.18117257863118488           0.235091234473784  1.0000   
         C         C         1.0       0.6648199643265259  0.22865474612867753           0.3127159100456088 1.0000   
         C         C         1.0       0.6356374125956179  0.22285918800852705           0.32110689438514545          1.0000   
         C         C         1.0       0.6093409955208233  0.2035622488861628  0.2988282316639676 1.0000   
         C         C         1.0       0.6138840148376336  0.19635914644055757           0.26298477039119633          1.0000   
         C         C         1.0       0.6448185572926589  0.20588658120047734           0.2533508528708612 1.0000   
         C         C         1.0       0.6682318951806078  0.2165345474391665  0.27982470986608793          1.0000   
         C         C         1.0       0.5744633431467191  0.18392124623467282           0.3157736719852069 1.0000   
         C         C         1.0       0.5880484437998112  0.11120789182349444           0.3390779121933196 1.0000   
         C         C         1.0       0.6004890344887953  0.13590089433350608           0.36307040916046557          1.0000   
         C         C         1.0       0.5941135149529759  0.15731203951977868           0.3556464986763496 1.0000   
         C         C         1.0       0.5743683485470271  0.1545170544123385  0.32609917672286565          1.0000   
         C         C         1.0       0.5620098390048345  0.12942768689117132           0.30261381308910623          1.0000   
         C         C         1.0       0.5696371627101006  0.10879413763833123           0.30771534202032685          1.0000   
         C         C         1.0       0.5471599873932608  0.17782804323085302           0.28533997537722056          1.0000   
         C         C         1.0       0.5528663949928376  0.20008072485971304           0.2618117244019905 1.0000   
         C         C         1.0       0.530176754415481   0.19385583809579332           0.23434536375047046          1.0000   
         C         C         1.0       0.4998999439621151  0.16705204918095398           0.23250514789868107          1.0000   
         C         C         1.0       0.4933386988759949  0.14503881467303822           0.2575913572065718 1.0000   
         C         C         1.0       0.515947762479542   0.15029037708199924           0.28466388215041294          1.0000   
         C         C         1.0       0.5484742028229581  0.17759903847182965           0.381057615167899  1.0000   
         C         C         1.0       0.5460296018126919  0.1892872555173951  0.4130721544674358 1.0000   
         C         C         1.0       0.5585908854510552  0.22017450435829305           0.41747768509105193          1.0000   
         C         C         1.0       0.5734855196754866  0.2379227842777739  0.3881232176351354 1.0000   
         C         C         1.0       0.5786731395492317  0.22626995166940309           0.35614989431973515          1.0000   
         C         C         1.0       0.5678734232942381  0.19591322334905312           0.35322071503211844          1.0000   
         H         H         1.0       0.7602861041601853  0.2454002510359111  0.3082497888175435 1.0000   
         H         H         1.0       0.6634520302336239  0.17676185827544472           0.33572128135996837          1.0000   
         H         H         1.0       0.6768105100799571  0.170131817093164   0.39426318991937803          1.0000   
         H         H         1.0       0.7761109440763778  0.24907372456353857           0.37816514726309647          1.0000   
         H         H         1.0       0.6405595099098113  0.15555061132885067           0.28161991678662796          1.0000   
         H         H         1.0       0.6270750190717326  0.10546675824068341           0.2564879183165469 1.0000   
         H         H         1.0       0.7178820356978829  0.15118818079763274           0.20530555855715973          1.0000   
         H         H         1.0       0.7338796647641396  0.20216901026545753           0.22780204595736786          1.0000   
         H         H         1.0       0.684328371860363   0.24056323370825955           0.3327834420021223 1.0000   
         H         H         1.0       0.6347931724423815  0.23174520484932878           0.3465632866324464 1.0000   
         H         H         1.0       0.5948958551730243  0.18188227108007174           0.24189039026767614          1.0000   
         H         H         1.0       0.645906073570608   0.19757320664847228           0.2261106527287085 1.0000   
         H         H         1.0       0.6171065051528418  0.14019114742238636           0.3863455694775748 1.0000   
         H         H         1.0       0.6061551317541479  0.17758749335116766           0.37393013544682013          1.0000   
         H         H         1.0       0.5479045329094763  0.12685155715884575           0.27783366612408966          1.0000   
         H         H         1.0       0.5582239358201846  0.08953923217206139           0.2886691719215717 1.0000   
         H         H         1.0       0.5762865729979665  0.22137411122070375           0.2583035777953826 1.0000   
         H         H         1.0       0.5349490919661595  0.21090883561412493           0.21358070396796008          1.0000   
         H         H         1.0       0.46929281962252073           0.12540862560624572          0.2550036835803383 1.0000   
         H         H         1.0       0.5084229759287926  0.13296272532384756           0.3065321430261058 1.0000   
         H         H         1.0       0.5364868788594714  0.15423467736911667           0.3803522742122615 1.0000   
         H         H         1.0       0.5326155358481117  0.1745496160906117  0.43615721589590767          1.0000   
         H         H         1.0       0.5859033456925291  0.2624013396726834  0.39418150454828677          1.0000   
         H         H         1.0       0.5886151106175486  0.24022470432135312           0.3326545793400464 1.0000   
         C         C         1.0       0.6438387044898635  0.08474862059240129           0.15708740075357028          1.0000   
         C         C         1.0       0.6443465073745059  0.07921409098737042           0.6428159496071789 1.0000   
         C         C         1.0       0.6303163702140754  0.07421897831423308           0.6082832626687597 1.0000   
         C         C         1.0       0.6384614962292177  0.09939981599277004           0.5881961243541641 1.0000   
         C         C         1.0       0.6570451105708079  0.1284893031499625  0.6060728853964672 1.0000   
         C         C         1.0       0.6728619658944284  0.13208302945867778           0.6379007039778313 1.0000   
         H         H         1.0       0.5924235689117956  0.05501186033949934           0.15216159251161068          1.0000   
         H         H         1.0       0.6138657514913537  0.0509053262926904  0.5988677433119121 1.0000   
         H         H         1.0       0.6644192062488569  0.15003784705854176           0.5916764890712229 1.0000   
         H         H         1.0       0.6919751954736512  0.15490292381237855           0.6483134214731993 1.0000   
         C         C         1.0       0.6413025904241335  0.13649417206993367           0.4930824612611471 1.0000   
         C         C         1.0       0.6517506630155833  0.1259920202302276  0.5216159304249819 1.0000   
         C         C         1.0       0.6848776823623177  0.14136679067343683           0.52507194811081   1.0000   
         C         C         1.0       0.7066607184653529  0.1678109201072956  0.5065457327905373 1.0000   
         C         C         1.0       0.694464572409427   0.1777620356017678  0.4795509636600617 1.0000   
         C         C         1.0       0.6619149466090394  0.16187923039751415           0.47270666574139014          1.0000   
         C         C         1.0       0.6265100560183852  0.09700711729793343           0.5458574299696219 1.0000   
         C         C         1.0       0.592119033793343   0.09119907758281376           0.5565911770687066 1.0000   
         C         C         1.0       0.5899791739410858  0.115555345485987   0.5605434634834806 1.0000   
         C         C         1.0       0.5629003947374254  0.11086983541489626           0.5782002864820236 1.0000   
         C         C         1.0       0.5384918780472323  0.08292059461786039           0.5900992120184825 1.0000   
         C         C         1.0       0.5418780052882625  0.05938984783030121           0.58686836833181   1.0000   
         C         C         1.0       0.5672062751449302  0.06292955144874601           0.5687548712246655 1.0000   
         C         C         1.0       0.6505043746408393  0.06813361280604213           0.5247749840353699 1.0000   
         C         C         1.0       0.655547507954969   0.05135947882532799           0.49909268075293883          1.0000   
         C         C         1.0       0.6347640760847606  0.035969458106954066         0.4685882431715877 1.0000   
         C         C         1.0       0.6099844398739934  0.04081260644933549           0.4637977399407958 1.0000   
         C         C         1.0       0.6063763554579662  0.05833299598699049           0.4897359474580551 1.0000   
         C         C         1.0       0.6265496778782365  0.07201522758981005           0.5200853323072031 1.0000   
         C         C         1.0       0.6433826378857888  0.019645630306551753         0.43822929153931905          1.0000   
         C         C         1.0       0.6992735265244423  0.09302666747099142           0.3562882733242429 1.0000   
         C         C         1.0       0.7128993317700557  0.09292005744949416           0.39037501983539685          1.0000   
         C         C         1.0       0.6960054714455087  0.07093428543927227           0.4167731225097092 1.0000   
         C         C         1.0       0.6632184021363577  0.048732550687963005         0.41092383312854164          1.0000   
         C         C         1.0       0.649185314609431   0.04927638865581363           0.3769782183345153 1.0000   
         C         C         1.0       0.6677291733544255  0.07169606055082345           0.35110958534931425          1.0000   
         C         C         1.0       0.6114207482757507  0.9890057401001446  0.4242306333610324 1.0000   
         C         C         1.0       0.5823874988264135  0.9709794798839806  0.4443771367123138 1.0000   
         C         C         1.0       0.5568831516865972  0.9419420708693117  0.4293057606177444 1.0000   
         C         C         1.0       0.5584930490637218  0.9332981047409248  0.3932317157053526 1.0000   
         C         C         1.0       0.5882346266069497  0.9512773295144281  0.3733989369475949 1.0000   
         C         C         1.0       0.6130854625277324  0.9777350805436517  0.39016591138393475          1.0000   
         C         C         1.0       0.6886934151139202  0.0081319295932063  0.43379457523891723          1.0000   
         C         C         1.0       0.7077195095971563  0.0009925551138310063        0.45139962242395176          1.0000   
         C         C         1.0       0.7028203124982324  0.9925601363758069  0.4876966282941219 1.0000   
         C         C         1.0       0.676336549475321   0.9881520570176838  0.5045399296286174 1.0000   
         C         C         1.0       0.6539304640644095  0.9910777397076016  0.4844953637726665 1.0000   
         C         C         1.0       0.662675493735781   0.005813830804294318         0.45112629672819227          1.0000   
         H         H         1.0       0.6152151268417394  0.12518648045908715           0.4878112733793223 1.0000   
         H         H         1.0       0.6938564369556007  0.1330121843900125  0.5453119913637059 1.0000   
         H         H         1.0       0.7320840988119327  0.18116247635888827           0.5133926616968502 1.0000   
         H         H         1.0       0.6515203250914352  0.16806751869982103           0.45007520301678045          1.0000   
         H         H         1.0       0.6083253307520584  0.1382495279447482  0.5497280364085905 1.0000   
         H         H         1.0       0.565191657587585   0.13226547545273637           0.585234228448504  1.0000   
         H         H         1.0       0.5216661494585806  0.0369460190991604  0.595058112526114  1.0000   
         H         H         1.0       0.56718939898406    0.044022445003110144         0.5612658026318808 1.0000   
         H         H         1.0       0.6646249377883874  0.07804276904704355           0.5503501158850851 1.0000   
         H         H         1.0       0.673185478567271   0.04719443117733513           0.5018266823456431 1.0000   
         H         H         1.0       0.5968571898133402  0.03311014715973637           0.4404036674355664 1.0000   
         H         H         1.0       0.5885738590994002  0.06268706690558745           0.4849353287377462 1.0000   
         H         H         1.0       0.7393987060690447  0.10939842662527965           0.39554295412696755          1.0000   
         H         H         1.0       0.7059000607183148  0.07292239743686735           0.4448564161814215 1.0000   
         H         H         1.0       0.6237677565305947  0.03042247613743143           0.3689514961513104 1.0000   
         H         H         1.0       0.6558035748531819  0.07106207295708256           0.3254943332391828 1.0000   
         H         H         1.0       0.5780882082076171  0.9762601846992027  0.47095596581717   1.0000   
         H         H         1.0       0.534433690561922   0.926984807921946   0.4433563411310541 1.0000   
         H         H         1.0       0.5934747385489895  0.9463656055272669  0.34770956101844425          1.0000   
         H         H         1.0       0.636210908076633   0.9894764947806477  0.3769069955327161 1.0000   
         H         H         1.0       0.6924030163375221  0.015206855484886539         0.4048572115961101 1.0000   
         H         H         1.0       0.7267003436124171  0.002942620697133247         0.43565377259464294          1.0000   
         H         H         1.0       0.6727059217074887  0.9851233430192766  0.5346793988733108 1.0000   
         H         H         1.0       0.6318894666508212  0.9834073182857731  0.4956551016621373 1.0000   
         C         C         1.0       0.4177892592898715  0.307493122349977   0.4636215685368506 1.0000   
         C         C         1.0       0.4460996817722027  0.31145679453507524           0.475741627251107  1.0000   
         C         C         1.0       0.46030169181026726           0.3005327093244971 0.45555839784435337          1.0000   
         C         C         1.0       0.45000626082934103           0.28940606123925516          0.4191432554454039 1.0000   
         C         C         1.0       0.42145062173937614           0.2854448108525041 0.40632170490442326          1.0000   
         C         C         1.0       0.40619282565368525           0.2944132306710273 0.4294477743500837 1.0000   
         H         H         1.0       0.45820779483775104           0.3212570437213259 0.5028096053740496 1.0000   
         H         H         1.0       0.4835924106439002  0.3059449801951442  0.46651850235460945          1.0000   
         H         H         1.0       0.41462361137965065           0.2815335167858877 0.37537158575612184          1.0000   
         H         H         1.0       0.3878686405067018  0.2955191250540321  0.41840258576182937          1.0000   
         C         C         1.0       0.4205393542342345  0.2304221899486129  0.3767149164488462 1.0000   
         C         C         1.0       0.4515608174502338  0.2538474681749509  0.3676564777094009 1.0000   
         C         C         1.0       0.46618290546597735           0.24810283530783533          0.3381638898349617 1.0000   
         C         C         1.0       0.44881308290484656           0.22195505830277049          0.31625186471838374          1.0000   
         C         C         1.0       0.4162970252914181  0.20079253745304396           0.32460636503524715          1.0000   
         C         C         1.0       0.4040604577197155  0.20371513905072489           0.35756598190416555          1.0000   
         C         C         1.0       0.471169800379872   0.28493213314271165           0.3914489642744813 1.0000   
         C         C         1.0       0.495956293516495   0.2791031256758716  0.41315190448536604          1.0000   
         C         C         1.0       0.5263558940457335  0.2911410626991271  0.3981763817055873 1.0000   
         C         C         1.0       0.5471711697261372  0.2866720284084669  0.4143851708505328 1.0000   
         C         C         1.0       0.539595709466911   0.2701288805290019  0.4462468675916739 1.0000   
         C         C         1.0       0.5091616996534183  0.2568676651166235  0.46209052923393557          1.0000   
         C         C         1.0       0.4880769080567153  0.26202514225270596           0.4456740836537009 1.0000   
         C         C         1.0       0.48577674588139447           0.3164299029996757 0.3303992274488424 1.0000   
         C         C         1.0       0.502375307678811   0.3435442030664617  0.3114522195375226 1.0000   
         C         C         1.0       0.5263745557876968  0.3695107578489154  0.32942338891766165          1.0000   
         C         C         1.0       0.5321832045468952  0.3675163263553022  0.36614648954330603          1.0000   
         C         C         1.0       0.5134085552273349  0.341523748911626   0.3871362245141325 1.0000   
         C         C         1.0       0.4903733535519032  0.3153785635135373  0.36871867711417666          1.0000   
         C         C         1.0       0.5445651847926682  0.40100727672452147           0.3079436479420779 1.0000   
         C         C         1.0       0.504394404700839   0.41212901510505734           0.2044118056537674 1.0000   
         C         C         1.0       0.4854857430382971  0.39739047446985376           0.23422885951683642          1.0000   
         C         C         1.0       0.4983046189925685  0.39217169188171697           0.26419744507069426          1.0000   
         C         C         1.0       0.5309234579429134  0.4040118629794581  0.26728755706482654          1.0000   
         C         C         1.0       0.5481538003291418  0.41929415036745726           0.2345535843415525 1.0000   
         C         C         1.0       0.5352910911119806  0.42462772898255446           0.20535099329536433          1.0000   
         C         C         1.0       0.5801988820794357  0.40712755105891196           0.30374512073101917          1.0000   
         C         C         1.0       0.6050371988813135  0.4271570836289926  0.3256428312628069 1.0000   
         C         C         1.0       0.6355419648665229  0.43557042565949333           0.3176013006590324 1.0000   
         C         C         1.0       0.6412022449111464  0.4244585877397301  0.2861993893517644 1.0000   
         C         C         1.0       0.6153506976564369  0.3989690784830064  0.2685351738792248 1.0000   
         C         C         1.0       0.584351911586059   0.3904866297818765  0.2762755535522547 1.0000   
         C         C         1.0       0.5657736310225904  0.45639560521365297           0.32573607021826934          1.0000   
         C         C         1.0       0.5676260644631647  0.47857360110026853           0.34866961060672186          1.0000   
         C         C         1.0       0.5431092888649088  0.47074058327056645           0.37140344622545307          1.0000   
         C         C         1.0       0.5192661042311206  0.44124795618706536           0.37571089662363644          1.0000   
         C         C         1.0       0.5180592284487081  0.4181268069854068  0.3559131241004631 1.0000   
         C         C         1.0       0.5428602024701895  0.4257469248828069  0.33155794581067854          1.0000   
         H         H         1.0       0.41057943731690627           0.2312897603766766 0.4036524007269825 1.0000   
         H         H         1.0       0.49181967060601783           0.26521055639393676          0.3350017270069869 1.0000   
         H         H         1.0       0.4600403388309612  0.21977603472058374           0.2906928750149586 1.0000   
         H         H         1.0       0.3803985986561656  0.18548542230862466           0.3682372801110449 1.0000   
         H         H         1.0       0.5331590698128897  0.302292910002315   0.3712601268607413 1.0000   
         H         H         1.0       0.5721187213445005  0.299735428254131   0.40695998548234785          1.0000   
         H         H         1.0       0.5024593956884573  0.2435973967462824  0.4886815589449341 1.0000   
         H         H         1.0       0.46399234920916144           0.24979873740954325          0.45808874509337083          1.0000   
         H         H         1.0       0.46538484764460036           0.2944663111465274 0.3178381900949273 1.0000   
         H         H         1.0       0.4970035133005627  0.3419129029537954  0.28105069243824515          1.0000   
         H         H         1.0       0.5507098293761036  0.38522276735660826           0.3815003666342767 1.0000   
         H         H         1.0       0.5187310487969478  0.3409452579430444  0.41636135391784596          1.0000   
         H         H         1.0       0.4606484197587555  0.38763291267253497           0.23311324925116628          1.0000   
         H         H         1.0       0.4825645263404667  0.3814419230457875  0.28737854501533694          1.0000   
         H         H         1.0       0.5742476070723644  0.4324760671657822  0.23284318615537192          1.0000   
         H         H         1.0       0.5494366972155418  0.43429905203332764           0.18120057261793848          1.0000   
         H         H         1.0       0.601295193514502   0.43687451364114227           0.3500849013214174 1.0000   
         H         H         1.0       0.6558367038532458  0.45127371210140516           0.33451848357857245          1.0000   
         H         H         1.0       0.6194730556608354  0.3904686347129997  0.24193566424183838          1.0000   
         H         H         1.0       0.5637955743556688  0.3749279014749944  0.2598464960421845 1.0000   
         H         H         1.0       0.5852825243815362  0.4627279865874549  0.3074214401099687 1.0000   
         H         H         1.0       0.5840180109281564  0.5025455797135691  0.34288529214511004          1.0000   
         H         H         1.0       0.49879078206640753           0.43849039114696864          0.3915925322324745 1.0000   
         H         H         1.0       0.4985788221141502  0.39467664004571723           0.3595410909887918 1.0000   
         C         C         1.0       0.26415296353568435           0.16258902927469074          0.6490776320631721 1.0000   
         C         C         1.0       0.28780097851280323           0.18839619538442695          0.6677603616273801 1.0000   
         C         C         1.0       0.31886228839539277           0.2037318633718015 0.6569032553587317 1.0000   
         C         C         1.0       0.3281042317154819  0.19190457224062088           0.6286413553896235 1.0000   
         C         C         1.0       0.3033060154433139  0.16649033429206633           0.6078730797571292 1.0000   
         C         C         1.0       0.2721938249863712  0.15188590550106212           0.6188410997730395 1.0000   
         H         H         1.0       0.2953235953664043  0.2190429392727745  0.19605220310310637          1.0000   
         H         H         1.0       0.33636737827247587           0.2246115877006549 0.6715208072974544 1.0000   
         H         H         1.0       0.305478265357927   0.1536998072089813  0.5860696155987318 1.0000   
         H         H         1.0       0.2535684056832017  0.13259625945802084           0.6014747708243416 1.0000   
         C         C         1.0       0.3571156063110588  0.17609869140943907           0.19552348740613879          1.0000   
         C         C         1.0       0.38703764491238896           0.21678807056961613          0.652018724959544  1.0000   
         C         C         1.0       0.41174130189326735           0.21006621059352937          0.18146632574332858          1.0000   
         C         C         1.0       0.4206360762405216  0.1994960377401683  0.2103875613481009 1.0000   
         C         C         1.0       0.3965126653759148  0.17482898452509318           0.2317765920612864 1.0000   
         C         C         1.0       0.3654762665297794  0.16293014026455216           0.2223970262259789 1.0000   
         C         C         1.0       0.36411285423583034           0.20726871011758477          0.6152522402931443 1.0000   
         C         C         1.0       0.3659358132277249  0.23138385909157377           0.5877535534166628 1.0000   
         C         C         1.0       0.3523002054790697  0.22012695628833046           0.5513942572876468 1.0000   
         C         C         1.0       0.35346331143388743           0.2403723579400495 0.5266397917482226 1.0000   
         C         C         1.0       0.36781658764180936           0.27048104661216055          0.5350353551940282 1.0000   
         C         C         1.0       0.3818922207090341  0.28147605887646426           0.5692118904692564 1.0000   
         C         C         1.0       0.38198469497813814           0.262395003783782  0.594279110337493  1.0000   
         C         C         1.0       0.3595223164463829  0.15607818600651402           0.603838892357997  1.0000   
         C         C         1.0       0.37048130531358714           0.14039604558817206          0.5883610509118358 1.0000   
         C         C         1.0       0.39744194392476895           0.1546484705472879 0.5646283416268417 1.0000   
         C         C         1.0       0.41297006605598    0.18478599103520016           0.5605868770746011 1.0000   
         C         C         1.0       0.40171987941698806           0.20087827415657042          0.5768073705128096 1.0000   
         C         C         1.0       0.3722011183734283  0.18623457068889385           0.5948855978294451 1.0000   
         C         C         1.0       0.41061165713126624           0.13581396946418237          0.5487901902534587 1.0000   
         C         C         1.0       0.4677804456111963  0.1525813869742596  0.12947635793214393          1.0000   
         C         C         1.0       0.4366618091247811  0.12694352916894427           0.12737768302335134          1.0000   
         C         C         1.0       0.4166766512777038  0.12290082723719525           0.09935490036190453          1.0000   
         C         C         1.0       0.43217184758807337           0.1398155987462726 0.5860310443096923 1.0000   
         C         C         1.0       0.4645882018852929  0.1639183794452588  0.5878842200731685 1.0000   
         C         C         1.0       0.48474932466524795           0.16752485000607717          0.6166784395870234 1.0000   
         C         C         1.0       0.4287018855917067  0.14930620717324067           0.5112248653690336 1.0000   
         C         C         1.0       0.410104568505648   0.15315580620054695           0.4852947054910369 1.0000   
         C         C         1.0       0.4185742544651951  0.15902204115952714           0.44921913011306025          1.0000   
         C         C         1.0       0.44670602964742206           0.16311849386863278          0.4378776406915739 1.0000   
         C         C         1.0       0.4647744628073278  0.15943321021321177           0.46188037902471674          1.0000   
         C         C         1.0       0.45574868122744655           0.15223363294831962          0.4981380752455655 1.0000   
         C         C         1.0       0.39666244923576205           0.07985447827962933          0.537102543138407  1.0000   
         C         C         1.0       0.3786009034459232  0.05210326598053516           0.5195815592755504 1.0000   
         C         C         1.0       0.3487830414684322  0.041354186601191056         0.5031161567819845 1.0000   
         C         C         1.0       0.33764181676679694           0.059384042111139124         0.5074531633200899 1.0000   
         C         C         1.0       0.3560536467735127  0.08800241693538399           0.5240262905120672 1.0000   
         C         C         1.0       0.3869440693131773  0.09976932323409636           0.5370915486076379 1.0000   
         H         H         1.0       0.33044379261557316           0.16365278642075298          0.1930668286695815 1.0000   
         H         H         1.0       0.4290344121785375  0.2592336683000199  0.6315303966963657 1.0000   
         H         H         1.0       0.4466001923112787  0.21023810203333734           0.21500675040311484          1.0000   
         H         H         1.0       0.3466934981376903  0.14392181493357195           0.23894369787125602          1.0000   
         H         H         1.0       0.3444326022066682  0.19793796895002438           0.5404263220679876 1.0000   
         H         H         1.0       0.3442919979466741  0.23000395146135771           0.49862017468371717          1.0000   
         H         H         1.0       0.39477196578372076           0.30511399526149763          0.5776573352080542 1.0000   
         H         H         1.0       0.39526805362561285           0.269253856181188  0.6188321337494694 1.0000   
         H         H         1.0       0.34027650346868354           0.14443399751241576          0.6225892517051418 1.0000   
         H         H         1.0       0.35785707300244374           0.11620454569340201          0.595397352620973  1.0000   
         H         H         1.0       0.43365024993458734           0.19650901994662814          0.5445793966907351 1.0000   
         H         H         1.0       0.4168733768360986  0.22483018252109843           0.5744337792975047 1.0000   
         H         H         1.0       0.42946721068686833           0.10941341493237032          0.14682918546964435          1.0000   
         H         H         1.0       0.3920475482099958  0.10155438340815141           0.09885015703426168          1.0000   
         H         H         1.0       0.47132982937586    0.17945313487087636           0.5658656872311102 1.0000   
         H         H         1.0       0.5098836043709599  0.18497861581185246           0.611820710419216  1.0000   
         H         H         1.0       0.38646695103355694           0.148882525062662  0.49363539651075045          1.0000   
         H         H         1.0       0.4042004925256802  0.16346918429159651           0.432693953156814  1.0000   
         H         H         1.0       0.4868159702283067  0.16157279693653484           0.4521186288573876 1.0000   
         H         H         1.0       0.4679012605423951  0.14685523420209506           0.5185195027913533 1.0000   
         H         H         1.0       0.41963133193915003           0.0874261972735293 0.5484853764864964 1.0000   
         H         H         1.0       0.3865876320145405  0.036226913671826955         0.5205131476747746 1.0000   
         H         H         1.0       0.31497576255864695           0.051060952107306656         0.49131494256841485          1.0000   
         H         H         1.0       0.3476878940901501  0.10240423832815243           0.5237320715447945 1.0000   
         C         C         1.0       0.4021310228621991  0.3180748570217814  0.48972535873479456          1.0000   
         C         C         1.0       0.3688486534983796  0.29116820994346293           0.5047267019510908 1.0000   
         H         H         1.0       0.42001944769036104           0.33040178955152716          0.5131151751907995 1.0000   
         H         H         1.0       0.40034771981398165           0.3370574802879035 0.47789896577252866          1.0000   
         H         H         1.0       0.3535419505531889  0.27845673646695146           0.48135123594333845          1.0000   
         H         H         1.0       0.3565980321915624  0.30083507535680915           0.516190689392807  1.0000   
         C         C         1.0       0.40785741847140766           0.16565037599708804          0.26427958980424304          1.0000   
         C         C         1.0       0.39777345258700736           0.17005949206959114          0.3035825885257832 1.0000   
         H         H         1.0       0.43383955309135785           0.17471619505315067          0.2638850764383871 1.0000   
         H         H         1.0       0.39670045579696017           0.14102439383639145          0.2631852533301121 1.0000   
         H         H         1.0       0.4015576072608207  0.1552176482287952  0.32309588963264574          1.0000   
         H         H         1.0       0.3722720675285174  0.15918109118599408           0.3063598853637499 1.0000   
         C         C         1.0       0.5531904240699332  0.2302117512073211  0.4562027063628698 1.0000   
         C         C         1.0       0.560709326291091   0.26207660654072285           0.46472909746588376          1.0000   
         H         H         1.0       0.5282620920487573  0.21290430988532222           0.4644275482079986 1.0000   
         H         H         1.0       0.566747784129276   0.22656655097921424           0.4769431824415916 1.0000   
         H         H         1.0       0.5569846734506921  0.26323654639017013           0.49530217814457367          1.0000   
         H         H         1.0       0.5856520065865293  0.27974177854591403           0.4592570015175879 1.0000   
         C         C         1.0       0.4913550495887271  0.15800427064719086           0.16001675005292987          1.0000   
         C         C         1.0       0.4775712745401904  0.16144541515515728           0.19852923246212079          1.0000   
         H         H         1.0       0.4924525659665248  0.13814166936549097           0.1623893751954653 1.0000   
         H         H         1.0       0.5154147908382083  0.17868636059616447           0.1543227698685612 1.0000   
         H         H         1.0       0.45216379027661563           0.14203835973327353          0.20287904385020614          1.0000   
         H         H         1.0       0.4750420453898477  0.1806790807501604  0.19610708380974207          1.0000   
         C         C         1.0       0.6418915926891007  0.0740267533367469  0.19668271631858603          1.0000   
         C         C         1.0       0.6679274106989421  0.09720226757489892           0.22522883462984714          1.0000   
         H         H         1.0       0.6426916324494211  0.055246088406746496         0.19526124682231302          1.0000   
         H         H         1.0       0.6181840196756756  0.0639505478985185  0.21031554153728418          1.0000   
         H         H         1.0       0.6919620816978698  0.10171917778403228           0.2146293062723918 1.0000   
         H         H         1.0       0.665078126002571   0.0850066385940711  0.2513779531690396 1.0000   
         C         C         1.0       0.7367021873041627  0.20508423451412766           0.430931310086134  1.0000   
         C         C         1.0       0.7187401083150171  0.20939771578643906           0.4620854682121366 1.0000   
         H         H         1.0       0.7610687352699506  0.2175986399141668  0.43897413837107646          1.0000   
         H         H         1.0       0.7307874960682509  0.18196943985187208           0.4334197061290216 1.0000   
         H         H         1.0       0.7055349143614343  0.21834736202661237           0.44974682113942854          1.0000   
         H         H         1.0       0.7375560695227918  0.22672449336228875           0.48305533811065576          1.0000   
         C         C         1.0       0.33054404835159634           0.9863118954769566 0.4905653038692041 1.0000   
         C         C         1.0       0.32884492176297697           0.012747616884907886         0.478562583153201  1.0000   
         H         H         1.0       0.3532480359130331  0.9925272391850908  0.5034199900746515 1.0000   
         H         H         1.0       0.30853058293822766           0.9843055303713386 0.9347424364434843 1.0000   
         H         H         1.0       0.30485150374728087           0.007164848345541763         0.47634689706086375          1.0000   
         H         H         1.0       0.338400962599559   0.018942458251871575         0.447792897381679  1.0000   
         C         C         1.0       0.4754152838990095  0.056511994027731216         0.6022435759153375 1.0000   
         C         C         1.0       0.5117397280844262  0.0834019158637147  0.6114919949095454 1.0000   
         H         H         1.0       0.4601126015981317  0.060571789926047837         0.6181758104743521 1.0000   
         H         H         1.0       0.46910333608004195           0.033847208116796645         0.6118351905425933 1.0000   
         H         H         1.0       0.5154988674287038  0.1058984311230684  0.6082764815225317 1.0000   
         H         H         1.0       0.5174192579263542  0.08481338439091424           0.6421069627547968 1.0000   
         C         C         1.0       0.5795658727454869  0.07016944582359974           0.38868993989139966          1.0000   
         C         C         1.0       0.5912024295936352  0.08625668522422325           0.34866726251686037          1.0000   
         H         H         1.0       0.5761471358044516  0.04822536472147543           0.3868627200395171 1.0000   
         H         H         1.0       0.5999855358835653  0.08297264756693745           0.4091652488801608 1.0000   
         H         H         1.0       0.578280085669813   0.06805545125629009           0.32833821949946607          1.0000   
         H         H         1.0       0.6166359532397392  0.09553539883040152           0.34718471652542726          1.0000   
         C         C         1.0       0.452065148142381   0.16554029601172054           0.3946642079006261 1.0000   
         C         C         1.0       0.4277154691153926  0.132324368593697   0.3785084390657739 1.0000   
         H         H         1.0       0.4491350798993479  0.18226183087267686           0.38156935447789075          1.0000   
         H         H         1.0       0.4763769755116607  0.17443072309086138           0.38706907583371586          1.0000   
         H         H         1.0       0.4023127565722304  0.1268271222334152  0.3839765526226824 1.0000   
         H         H         1.0       0.43237027361781444           0.13565857737265574          0.3468184256022667 1.0000   
         C         C         1.0       0.26344915008173636           0.9462693094428511 0.27662358381592433          1.0000   
         C         C         1.0       0.2864640327383784  0.960316421425846   0.24293556659238627          1.0000   
         H         H         1.0       0.23974000019657682           0.9246774879858528 0.27216537611850433          1.0000   
         H         H         1.0       0.25642043571805456           0.9609247818537943 0.2847640236705245 1.0000   
         H         H         1.0       0.3050232137038038  0.9544382743582127  0.24329453646020163          1.0000   
         H         H         1.0       0.3044221518747336  0.9863720450293427  0.2514361588491622 1.0000   
         C         C         1.0       0.28985813139548416           0.8369893311089217 0.4952839529771024 1.0000   
         C         C         1.0       0.2559712303434277  0.8179460846658823  0.5154249984595938 1.0000   
         H         H         1.0       0.2984752486641118  0.823010140576897   0.4875691080994003 1.0000   
         H         H         1.0       0.30717313748498276           0.8507473675071762 0.5176141046027501 1.0000   
         H         H         1.0       0.23423063450727538           0.8029602188546029 0.49915954115315686          1.0000   
         H         H         1.0       0.2559032254344675  0.8024500544952033  0.5373338197570214 1.0000   
         C         C         1.0       0.21826614326571026           0.16779143654954462          0.6266296971465705 1.0000   
         C         C         1.0       0.22777069502208128           0.1526766956746853 0.655653234861501  1.0000   
         H         H         1.0       0.19255980447243418           0.15921841136954   0.6278782105026229 1.0000   
         H         H         1.0       0.21896834437771492           0.16094335344739094          0.5975132506669455 1.0000   
         H         H         1.0       0.21054480987639362           0.12689325523117667          0.6538151526098014 1.0000   
         H         H         1.0       0.22722165995446028           0.15960806352530185          0.6837750685624336 1.0000   
         C         C         1.0       0.4722917169193835  0.3909374813551475  0.14286146861929463          1.0000   
         C         C         1.0       0.49084310053889857           0.41823447436697225          0.1707370396801457 1.0000   
         H         H         1.0       0.49018275853064813           0.3973239353523247 0.11720082230220241          1.0000   
         H         H         1.0       0.47244403162299725           0.3726678973295495 0.1556070429006173 1.0000   
         H         H         1.0       0.47323705678969097           0.42443352988163346          0.18193811580371314          1.0000   
         H         H         1.0       0.5102526213250245  0.43781513044606    0.1555308999375854 1.0000   
         C         C         1.0       0.37538506995738746           0.426404069572567  0.3300995834612545 1.0000   
         C         C         1.0       0.39637265155307944           0.44106497549778073          0.2946317327486508 1.0000   
         H         H         1.0       0.3918504098571242  0.429790971649439   0.3514900344155387 1.0000   
         H         H         1.0       0.3570007254143229  0.40048941290776957           0.32682248376875156          1.0000   
         H         H         1.0       0.4059341236692407  0.4270651401295617  0.2863106429977379 1.0000   
         H         H         1.0       0.41910469977583564           0.4647711189279014 0.3034766982339395 1.0000   
         C         C         1.0       0.3413448840214232  0.48100613158213157           0.5779470340196419 1.0000   
         C         C         1.0       0.31239580796332084           0.4602924991777693 0.5483972935405005 1.0000   
         H         H         1.0       0.34314989107821703           0.502466536144764  0.5843817138301285 1.0000   
         H         H         1.0       0.3632295043582247  0.4865246500380686  0.5672178071498539 1.0000   
         H         H         1.0       0.30837405001234724           0.43749048015070313          0.5453138881194617 1.0000   
         H         H         1.0       0.2874224348973309  0.4526091400699216  0.560483661524816  1.0000   
         C         C         1.0       0.1771307320236845  0.40734360702240213           0.17688447028821913          1.0000   
         C         C         1.0       0.20954360477597894           0.4396601753257319 0.17080864436904716          1.0000   
         H         H         1.0       0.1625754680471337  0.41074098526684494           0.19502048446136577          1.0000   
         H         H         1.0       0.18349210001268904           0.39336090385586003          0.1918004694793182 1.0000   
         H         H         1.0       0.21391268911567085           0.456349906974656  0.19333277362962412          1.0000   
         H         H         1.0       0.20866156894714155           0.44989413889178764          0.14312817292005453          1.0000   
         C         C         1.0       0.09068885999122915           0.3158444439601241 0.33423820513114433          1.0000   
         C         C         1.0       0.12665596148899633           0.3340881021112437 0.3242606364365524 1.0000   
         H         H         1.0       0.0757785256574528  0.2927787545442472  0.31695402176988635          1.0000   
         H         H         1.0       0.08103961502642965           0.3292559902422929 0.32240191410279495          1.0000   
         H         H         1.0       0.12617965139834286           0.3238919113678008 0.2966985516501714 1.0000   
         H         H         1.0       0.1415519634326823  0.32937091548012226           0.3423893745220216 1.0000   
         C         C         1.0       0.7935381612361485  0.3238925072095785  0.20020983246842342          1.0000   
         C         C         1.0       0.8259192130796951  0.3321478206855265  0.2168714962336238 1.0000   
         H         H         1.0       0.7932668111642344  0.3204801360894862  0.16950682347204674          1.0000   
         H         H         1.0       0.7929711533956203  0.34457473691220303           0.1983055566160163 1.0000   
         H         H         1.0       0.8368234290701372  0.35079967701642123           0.2366248833436291 1.0000   
         H         H         1.0       0.8459507128589077  0.3451755918979843  0.19414056865231719          1.0000   
         C         C         1.0       0.7265243592540025  0.1460126757609757  0.33467510864342276          1.0000   
         C         C         1.0       0.7202392103286588  0.11436728960966036           0.3265458489308167 1.0000   
         H         H         1.0       0.7275814899596954  0.1491981526501024  0.36531724332423243          1.0000   
         H         H         1.0       0.7074990782794153  0.14790844544998338           0.3178740676364881 1.0000   
         H         H         1.0       0.713867653817052   0.10780684310990107           0.29652510870923243          1.0000   
         H         H         1.0       0.7429617961965205  0.11628475774823419           0.32733839529780895          1.0000   
         C         C         1.0       0.8824389738077962  0.18363523994620462           0.5161942261600484 1.0000   
         C         C         1.0       0.889163454017047   0.21349647322042048           0.5008024577227433 1.0000   
         H         H         1.0       0.872599754757965   0.16658911119100064           0.49137548127845965          1.0000   
         H         H         1.0       0.8626032985165935  0.1740375624247404  0.5353516618802003 1.0000   
         H         H         1.0       0.8663629153197718  0.208370714552673   0.4908066229203588 1.0000   
         H         H         1.0       0.8942261337235345  0.22917530073256415           0.524974732205944  1.0000   
         C         C         1.0       0.9961031087360966  0.19186150469429086           0.251423409093913  1.0000   
         C         C         1.0       0.01947750122747771           0.21564399422926708          0.2817043074123998 1.0000   
         H         H         1.0       0.9703019832802363  0.17956609886492159           0.2592396361987501 1.0000   
         H         H         1.0       0.004311724597237054          0.1764809323801339 0.2532032477632897 1.0000   
         H         H         1.0       0.04208665711859161           0.2339819785962742 0.2712620922479323 1.0000   
         H         H         1.0       0.02547210753006457           0.2040448648857595 0.30214230596513403          1.0000   
         C         C         1.0       0.995917098599591   0.7698045740051722  0.06501996381443154          1.0000   
         C         C         1.0       0.9926630354884038  0.7417908552102429  0.04997500846171987          1.0000   
         H         H         1.0       0.9774513194133058  0.7707230290064556  0.05097766556159388          1.0000   
         H         H         1.0       0.9881463120831493  0.7674752583412776  0.09449333274212378          1.0000   
         H         H         1.0       0.011400043983773145          0.7492152401026977 0.030283754826363474         1.0000   
         H         H         1.0       0.9704443032251584  0.7279297749371443  0.03293613269898055          1.0000   
         C         C         1.0       0.031287443040632024          0.928107709059848  0.4394239406553208 1.0000   
         C         C         1.0       0.06281048593574456           0.9388062942799316 0.4612729039450624 1.0000   
         H         H         1.0       0.027753412080918416          0.9474355314018624 0.44101966659604974          1.0000   
         H         H         1.0       0.033252516316397696          0.9227851699585522 0.410150360377652  1.0000   
         H         H         1.0       0.06696134584047364           0.952962270118092  0.4859062786047148 1.0000   
         H         H         1.0       0.0824052037712566  0.955227553155036   0.44235501098517427          1.0000   
         C         C         1.0       0.9337870363297582  0.7122094499906693  0.43269837507066544          1.0000   
         C         C         1.0       0.909388027075155   0.7012639602946407  0.4013669629594348 1.0000   
         H         H         1.0       0.9581789964019165  0.722248146866092   0.4203070306093204 1.0000   
         H         H         1.0       0.928479420588822   0.6943348066358963  0.4525685637023166 1.0000   
         H         H         1.0       0.8899582027131491  0.7048126410281186  0.4103109862160429 1.0000   
         H         H         1.0       0.8965714523585695  0.6751212089669897  0.40105107014094077          1.0000   
         C         C         1.0       0.017322127578743185          0.8723718393066263 0.1765939129931733 1.0000   
         C         C         1.0       0.03988789554719663           0.8698549277973201 0.20348745406074   1.0000   
         H         H         1.0       0.03245810401272764           0.8960413871468187 0.16743032376734712          1.0000   
         H         H         1.0       0.9972964799175951  0.8706606825584103  0.19113503831862547          1.0000   
         H         H         1.0       0.0522861252349629  0.8874366944173218  0.22590592883551175          1.0000   
         H         H         1.0       0.05938050460126276           0.8737818112392569 0.1859399202357526 1.0000   
         C         C         1.0       0.35931367422117627           0.8213489166025285 0.3274070017302524 1.0000   
         C         C         1.0       0.38155533063373503           0.8537241092464608 0.3102379040614122 1.0000   
         H         H         1.0       0.37020485879081017           0.8226067304360811 0.35546558278529666          1.0000   
         H         H         1.0       0.36331037274163436           0.8080192279518621 0.3053999649230359 1.0000   
         H         H         1.0       0.3785717153040414  0.8510143927734836  0.2789084085704317 1.0000   
         H         H         1.0       0.40859877673807987           0.863347141306604  0.31036673048633856          1.0000   
         C         C         1.0       0.22310553765302968           0.8715345197835912 0.3887794832680543 1.0000   
         C         C         1.0       0.1960290381306427  0.8772514014234307  0.3799837936945775 1.0000   
         H         H         1.0       0.2468782753404328  0.890465417093914   0.37728309202917965          1.0000   
         H         H         1.0       0.23054787835535684           0.8761018445403553 0.4189867528567275 1.0000   
         H         H         1.0       0.18231449170472463           0.8632236554784181 0.3580686020725667 1.0000   
         H         H         1.0       0.20827175499682665           0.9016962673695254 0.3691989656338801 1.0000   
         C         C         1.0       0.12751094754095701           0.5387592086744819 0.3639582909212652 1.0000   
         C         C         1.0       0.1613922052255003  0.5470082593483088  0.3714469062710197 1.0000   
         H         H         1.0       0.1217593194939515  0.5324298172857989  0.3343946213520491 1.0000   
         H         H         1.0       0.10920971160107183           0.5175970090604844 0.3747686122983353 1.0000   
         H         H         1.0       0.16685694679085253           0.5495428893812622 0.4023848936258964 1.0000   
         H         H         1.0       0.17803459841464295           0.569939618191404  0.36167784705119366          1.0000   
         C         C         1.0       0.11098172129773798           0.6704795277135546 0.2075282022322021 1.0000   
         C         C         1.0       0.14417870519881365           0.7024003336597254 0.20754593289606393          1.0000   
         H         H         1.0       0.10806900954708087           0.6560379942175079 0.23086825097313501          1.0000   
         H         H         1.0       0.11040352661015793           0.6571567921456756 0.18359695583310298          1.0000   
         H         H         1.0       0.14034430359379724           0.7180676807230437 0.1922316944307886 1.0000   
         H         H         1.0       0.16211267916374805           0.7032995628364944 0.18901986120648917          1.0000   
         C         C         1.0       0.05259735281517952           0.4259128388031648 0.345613162852046  1.0000   
         C         C         1.0       0.0644221528213933  0.4073563634701941  0.3618506386125183 1.0000   
         H         H         1.0       0.06647455882173547           0.4491627435076806 0.3572973920621869 1.0000   
         H         H         1.0       0.0274609348319641  0.4161808942808979  0.35450721083533476          1.0000   
         H         H         1.0       0.07475940942079329           0.41791316014022517          0.3904578019542796 1.0000   
         H         H         1.0       0.08711368120860552           0.41310114329803915          0.3484918839787635 1.0000   
         C         C         1.0       0.9795734148491352  0.34459684514288796           0.1049632289935062 1.0000   
         C         C         1.0       0.9744080083548482  0.31409448705042603           0.10956799279828901          1.0000   
         H         H         1.0       0.9549020793636651  0.33982963925370774           0.10367473224201565          1.0000   
         H         H         1.0       0.01076820030024006           0.37161484898655   0.529192220054928  1.0000   
         H         H         1.0       0.9693829396193852  0.3092417893741223  0.1390847681643232 1.0000   
         H         H         1.0       0.9542595455852586  0.31817991554028613           0.5409721253523652 1.0000   
         C         C         1.0       0.9001977537009609  0.51809975652181    0.11727519671371951          1.0000   
         C         C         1.0       0.8964836798986184  0.5384562055152493  0.14503295584838083          1.0000   
         H         H         1.0       0.9018409746055558  0.5262834783972844  0.08913293477584693          1.0000   
         H         H         1.0       0.8783208520462654  0.4954126846429282  0.1164404536455037 1.0000   
         H         H         1.0       0.8736176893971245  0.5360875522156321  0.13636288650999637          1.0000   
         H         H         1.0       0.8896851619621882  0.5259330938211357  0.17133303816039125          1.0000   
         C         C         1.0       0.21038656059165375           0.5195630931577021 0.1643466361792158 1.0000   
         C         C         1.0       0.19951889618662821           0.5413193698401214 0.16255588679079558          1.0000   
         H         H         1.0       0.23440142023409663           0.5337513979517367 0.1522579530423412 1.0000   
         H         H         1.0       0.20031694850692897           0.5026077745663858 0.1443056755261669 1.0000   
         H         H         1.0       0.20874594369811192           0.5547843445668975 0.13489824488630117          1.0000   
         H         H         1.0       0.21260443896643838           0.5587443502933066 0.18408348914691586          1.0000   
         C         C         1.0       0.1425512720308228  0.6499428567783926  0.09180808314420186          1.0000   
         C         C         1.0       0.15432213966307726           0.6696823397746386 0.5786005723476568 1.0000   
         H         H         1.0       0.1423210791255136  0.6683221715358629  0.08066224099061081          1.0000   
         H         H         1.0       0.16389913862154915           0.6625613700112015 0.11162054585552253          1.0000   
         H         H         1.0       0.16645709324337243           0.6608179178075182 0.5899873137393636 1.0000   
         H         H         1.0       0.17434331780681683           0.6946745202868753 0.5767132484509333 1.0000   
         C         C         1.0       0.9977372325573829  0.5982291915431546  0.3061786375494992 1.0000   
         C         C         1.0       0.002984240684770656          0.5893562734128998 0.34399891623701984          1.0000   
         H         H         1.0       0.005671040422591972          0.6225605654845145 0.3060111582860288 1.0000   
         H         H         1.0       0.9710957396800809  0.5864322376598095  0.30192062768079964          1.0000   
         H         H         1.0       0.9878453462553771  0.5913322231665274  0.36505820515250803          1.0000   
         H         H         1.0       0.9954367868617464  0.5644982142319279  0.34042535549651537          1.0000   
         C         C         1.0       0.9785449676912976  0.062209049546436024         0.5670269673646005 1.0000   
         C         C         1.0       0.9991189123282229  0.08408088041399096           0.5332750606661232 1.0000   
         H         H         1.0       0.9968547247087238  0.06960992057497783           0.5888580319199997 1.0000   
         H         H         1.0       0.9696538771146188  0.039591169793284704         0.5586677222064985 1.0000   
         H         H         1.0       0.022476057633355806          0.08585033143804327          0.5318147989149067 1.0000   
         H         H         1.0       0.9853323840892868  0.07213137298796735           0.5067308322996024 1.0000   
         C         C         1.0       0.9154712598178604  0.19140908253244876           0.16120551804445438          1.0000   
         C         C         1.0       0.900709467811125   0.20941718038062979           0.14935808848025556          1.0000   
         H         H         1.0       0.9268274159932366  0.19839775905522597           0.19143786288133646          1.0000   
         H         H         1.0       0.939072898298699   0.203824831625937   0.14286535817702856          1.0000   
         H         H         1.0       0.8817382205186826  0.1966395819345728  0.12839887814881532          1.0000   
         H         H         1.0       0.9184817415620071  0.23132893945953917           0.13453062249536765          1.0000   
         C         C         1.0       0.730585694431266   0.8173094297449778  0.6392590248965293 1.0000   
         C         C         1.0       0.7600682907880297  0.8270889366366396  0.16686095508400803          1.0000   
         H         H         1.0       0.7047632524618289  0.7987982790024671  0.6467834747064963 1.0000   
         H         H         1.0       0.7273198925413705  0.8160637499086583  0.6077974913528098 1.0000   
         H         H         1.0       0.7490211504514124  0.8095347232038986  0.18807138991250666          1.0000   
         H         H         1.0       0.7792871527517224  0.8481096575565714  0.18058252676868547          1.0000   
         C         C         1.0       0.7270261038296594  0.9909261182467496  0.5137557671844217 1.0000   
         C         C         1.0       0.7630268151844788  0.010540440248896221         0.5036076515668095 1.0000   
         H         H         1.0       0.7238374558922811  0.9993305726572728  0.5424317525034756 1.0000   
         H         H         1.0       0.7180772967089932  0.9671856724499805  0.5156308186900275 1.0000   
         H         H         1.0       0.7672398130551596  0.9985347359342506  0.4829636791892642 1.0000   
         H         H         1.0       0.7688371537981853  0.032410913621176984         0.48962902619732507          1.0000   
         C         C         1.0       0.5304019518980545  0.9049039391662886  0.37545646446608233          1.0000   
         C         C         1.0       0.5354722978690536  0.882144272352926   0.3543317637766366 1.0000   
         H         H         1.0       0.5202015297074315  0.9120146876716861  0.35291401816497114          1.0000   
         H         H         1.0       0.511498626329219   0.8903373127696298  0.39705635266358963          1.0000   
         H         H         1.0       0.541090198015052   0.8886847332077799  0.3252774416539376 1.0000   
         H         H         1.0       0.5109139971309584  0.8586894661211826  0.3504454703816967 1.0000   
         C         C         1.0       0.8071210639341254  0.8709723084297876  0.41212946128669276          1.0000   
         C         C         1.0       0.7891935358270009  0.8859713589087517  0.42048110811782363          1.0000   
         H         H         1.0       0.8330097842658988  0.8882084322097815  0.40225379466229505          1.0000   
         H         H         1.0       0.7961070997288388  0.8541705719290879  0.38795453460815116          1.0000   
         H         H         1.0       0.7972195084594453  0.8971564285077764  0.4476361934389867 1.0000   
         H         H         1.0       0.7950865293046908  0.9046113402975102  0.40106040837419554          1.0000   
         C         C         1.0       0.7735040476421723  0.9671672766561604  0.3805947284819619 1.0000   
         C         C         1.0       0.7811393591836955  0.9878073030931452  0.34717984735753377          1.0000   
         H         H         1.0       0.7866069750898312  0.9818274256657069  0.40624001382614083          1.0000   
         H         H         1.0       0.7825203529197674  0.9522894375742098  0.37494593503458906          1.0000   
         H         H         1.0       0.8092246604890745  0.006407477575365528         0.3436183099818241 1.0000   
         H         H         1.0       0.7750547558451993  0.003056709344516184         0.3597513664171089 1.0000   
         C         C         1.0       0.6443822492503584  0.918427899424032   0.6121168633712527 1.0000   
         C         C         1.0       0.6256115343119089  0.8922987895987289  0.5850045687275299 1.0000   
         H         H         1.0       0.6552035725410613  0.9409331089319869  0.6012241010740875 1.0000   
         H         H         1.0       0.6282127909351243  0.9161543327932604  0.6339187741486499 1.0000   
         H         H         1.0       0.6006571456289463  0.886926155174615   0.5846780967392693 1.0000   
         H         H         1.0       0.6185702675711376  0.8704630663749194  0.5957913281176975 1.0000   
         C         C         1.0       0.42133490197931284           0.6229070213811686 0.4007618167411774 1.0000   
         C         C         1.0       0.43210923000020635           0.6189561704355496 0.4411286486227792 1.0000   
         H         H         1.0       0.4359884454356575  0.6247222509551718  0.3759105114854717 1.0000   
         H         H         1.0       0.41767025916862077           0.6420000609665679 0.3997905913275877 1.0000   
         H         H         1.0       0.4165640471558246  0.618190308183949   0.462368529941844  1.0000   
         H         H         1.0       0.45691678803345237           0.6408163626773464 0.44562169820163045          1.0000   
         C         C         1.0       0.338569429411623   0.4028423691064961  0.5181025703258737 1.0000   
         C         C         1.0       0.3473346730666355  0.3791496454138972  0.5132624270261944 1.0000   
         H         H         1.0       0.3310687368274474  0.4029178249559105  0.5480484858903932 1.0000   
         H         H         1.0       0.3158110402533583  0.39446179540748866           0.501319879564736  1.0000   
         H         H         1.0       0.37340735634766425           0.3913083486404821 0.5085411363151466 1.0000   
         H         H         1.0       0.3359704822803751  0.365295851926192   0.485903862758598  1.0000   
         C         C         1.0       0.6526143865486662  0.7082498817738853  0.5647604314435025 1.0000   
         C         C         1.0       0.6424418010208067  0.7305948192969084  0.5556985730231013 1.0000   
         H         H         1.0       0.6737668894298249  0.7133512279012436  0.548077447440015  1.0000   
         H         H         1.0       0.6636956587882594  0.7153827106948938  0.5929848887151599 1.0000   
         H         H         1.0       0.6594912453890809  0.7541492711256886  0.5669291235853777 1.0000   
         H         H         1.0       0.617891867281478   0.7190958730070302  0.5686129393573126 1.0000   
         C         C         1.0       0.5429457604470599  0.4979087680213879  0.3897103281975538 1.0000   
         C         C         1.0       0.525284642007517   0.5054577964782746  0.36234154013036135          1.0000   
         H         H         1.0       0.5671655652442039  0.5186403165974592  0.39578348677807684          1.0000   
         H         H         1.0       0.532814393508219   0.48850810796810157           0.4171682873561104 1.0000   
         H         H         1.0       0.5097638807602612  0.48530417295180317           0.3432410911105576 1.0000   
         H         H         1.0       0.5437191469829878  0.5260111347507944  0.3450580164144447 1.0000   
         C         C         1.0       0.8714393509924043  0.747131995578738   0.13634714447298454          1.0000   
         C         C         1.0       0.8490436053344043  0.7569078585409718  0.15049196160020709          1.0000   
         H         H         1.0       0.8884184172450232  0.7647978736702553  0.1171987409164256 1.0000   
         H         H         1.0       0.8552764077873639  0.7254057691570935  0.11865913273669867          1.0000   
         H         H         1.0       0.8481889981904893  0.7705458375177124  0.12689949107139623          1.0000   
         H         H         1.0       0.8626260514866323  0.7749122759780304  0.17218069906239158          1.0000   
         C         C         1.0       0.711239310543171   0.6584341338845909  0.010975759755644798         1.0000   
         C         C         1.0       0.7448965529116003  0.6771737168331802  0.9900170595674476 1.0000   
         H         H         1.0       0.6755250252029344  0.6579733566490863  0.5073461150976855 1.0000   
         H         H         1.0       0.6666585143821465  0.622808956967815   0.5080424905321287 1.0000   
         H         H         1.0       0.7072734352413603  0.6467684373715875  0.46547052981168746          1.0000   
         H         H         1.0       0.7589074619355698  0.6670533374702754  0.9937577957678354 1.0000   
         C         C         1.0       0.6783421696349087  0.4585685184268049  0.23466136231504478          1.0000   
         C         C         1.0       0.6753760573136783  0.4415411547238713  0.27095576769648405          1.0000   
         H         H         1.0       0.7017403056736864  0.4672704905820734  0.22320939230478237          1.0000   
         H         H         1.0       0.662983390064307   0.44247028375941316           0.21286946222405137          1.0000   
         H         H         1.0       0.6923521212295747  0.45612379570537903           0.29273733601397683          1.0000   
         H         H         1.0       0.6810115837263532  0.4246338753360014  0.2697227401579472 1.0000   
         C         C         1.0       0.6286301331094103  0.7040564953730325  0.2749776467717036 1.0000   
         C         C         1.0       0.6282305037662711  0.6745011120688307  0.27628623292458243          1.0000   
         H         H         1.0       0.6490375762716653  0.7199243814882832  0.2564606104457739 1.0000   
         H         H         1.0       0.606077088207828   0.6979930818255993  0.2606756239777241 1.0000   
         H         H         1.0       0.6027811147928748  0.656610683482558   0.2704441899617535 1.0000   
         H         H         1.0       0.634255799922617   0.6698006055306358  0.3034842020806552 1.0000   
         C         C         1.0       0.5111266356256323  0.5075186196281084  0.6996785261715073 1.0000   
         C         C         1.0       0.5145958145978375  0.5144641318566868  0.23583261080866572          1.0000   
         H         H         1.0       0.5124756029683569  0.5242310569850075  0.7197488680014021 1.0000   
         H         H         1.0       0.48388740201995106           0.48980631555022375          0.6933347048556111 1.0000   
         H         H         1.0       0.49707249728127684           0.4971590031054772 0.25546509516889027          1.0000   
         H         H         1.0       0.5158149889724281  0.535563530145839   0.2419778052892222 1.0000   
         C         C         1.0       0.6662128513728707  0.5743222405543433  0.42801499362296747          1.0000   
         C         C         1.0       0.6413736641380112  0.5496725672764762  0.4545808959123665 1.0000   
         H         H         1.0       0.6924146633600082  0.5832296603596889  0.43168814555174045          1.0000   
         H         H         1.0       0.66876595101524    0.5963470559454301  0.4327735483468755 1.0000   
         H         H         1.0       0.6523922418446046  0.5394727045403559  0.46960771765209325          1.0000   
         H         H         1.0       0.6196744661064597  0.5283479304328182  0.4388450362118061 1.0000   
         C         C         1.0       0.6986884387515596  0.5041392528999061  0.737723539722007  1.0000   
         C         C         1.0       0.6789254255959669  0.5057015022861265  0.7134668554338585 1.0000   
         C         C         1.0       0.6678090017118726  0.5226055521953729  0.7245452576976852 1.0000   
         C         C         1.0       0.6736058286946183  0.5356166806204699  0.7610609410064165 1.0000   
         C         C         1.0       0.6961092623500162  0.5353513756382273  0.782018317326566  1.0000   
         C         C         1.0       0.7084996381149538  0.5192609173401079  0.7705103967057882 1.0000   
         H         H         1.0       0.6732320702938875  0.49607147618990477           0.6863854930898017 1.0000   
         H         H         1.0       0.6526367758274867  0.5240317150764316  0.7045798117784604 1.0000   
         H         H         1.0       0.7025597733226188  0.54273989994681    0.8112971704462706 1.0000   
         H         H         1.0       0.7254773908025648  0.5167450823226561  0.7880661403721081 1.0000   
         C         C         1.0       0.6576838953174647  0.5382593479888728  0.8469393892237448 1.0000   
         C         C         1.0       0.6618219174645023  0.5595501505471628  0.8209115065024905 1.0000   
         C         C         1.0       0.665636556606191   0.5861607198491624  0.8350429840750779 1.0000   
         C         C         1.0       0.6653866591564056  0.5896986957919844  0.8721477736829979 1.0000   
         C         C         1.0       0.665337052800332   0.5703900036635876  0.8968510020560624 1.0000   
         C         C         1.0       0.6614936868945969  0.5445017778068025  0.8837122232597503 1.0000   
         C         C         1.0       0.6566633208488682  0.5507931811143228  0.7764277566992637 1.0000   
         C         C         1.0       0.6179142141681349  0.5323591714097843  0.7676953111066689 1.0000   
         C         C         1.0       0.6035970987341319  0.5484524057309063  0.7692295007413095 1.0000   
         C         C         1.0       0.5723352604196655  0.5352459131769557  0.7563301750543203 1.0000   
         C         C         1.0       0.5559309673848288  0.5071178954911739  0.7405934656270805 1.0000   
         C         C         1.0       0.5683274295012749  0.48941656366364694           0.7425153103671606 1.0000   
         C         C         1.0       0.5993473673341018  0.5027996864291614  0.7552362546650597 1.0000   
         C         C         1.0       0.7071728330044112  0.607041108401634   0.7577006571212567 1.0000   
         C         C         1.0       0.7200570245457598  0.6314522204256763  0.7342057905500489 1.0000   
         C         C         1.0       0.7042555787797842  0.630952829115889   0.7017095815783638 1.0000   
         C         C         1.0       0.6742819790495512  0.6058698107272342  0.6950437064944411 1.0000   
         C         C         1.0       0.6618542717799937  0.5807912426754933  0.7147238562646676 1.0000   
         C         C         1.0       0.6756095996224627  0.5806795086950521  0.7496305842984877 1.0000   
         C         C         1.0       0.7166186309011844  0.662165013888818   0.678704683209095  1.0000   
         C         C         1.0       0.6697956641820945  0.687200205000133   0.7599846797085562 1.0000   
         C         C         1.0       0.7006451566484954  0.6968552231040596  0.7645755870499642 1.0000   
         C         C         1.0       0.7161974714333306  0.6915107171119497  0.7371738885559823 1.0000   
         C         C         1.0       0.6999889000111931  0.674771209443232   0.7046610101259306 1.0000   
         C         C         1.0       0.6691238562871062  0.6643399707451322  0.7012228898381425 1.0000   
         C         C         1.0       0.6543914829766623  0.6717489502150926  0.7277236451755321 1.0000   
         C         C         1.0       0.7064353862915611  0.6550644709261698  0.6352464681235357 1.0000   
         C         C         1.0       0.7036459273927912  0.6314811990725818  0.6160132732256189 1.0000   
         C         C         1.0       0.6964989388604259  0.6274353843653487  0.5780825752255193 1.0000   
         C         C         1.0       0.6938535167999025  0.6483920819334689  0.5591277506470618 1.0000   
         C         C         1.0       0.6952818052993667  0.6707894695411257  0.5792753412687947 1.0000   
         C         C         1.0       0.7013707591099763  0.6746376291619116  0.6154966165654518 1.0000   
         C         C         1.0       0.7698942268406835  0.7153258860699593  0.6653596241864035 1.0000   
         C         C         1.0       0.8002604500266985  0.7332609507515393  0.6512671572743906 1.0000   
         C         C         1.0       0.8170284218419162  0.7207466484043522  0.6448376974387932 1.0000   
         C         C         1.0       0.8022464535016028  0.6897530757572309  0.6509143781258993 1.0000   
         C         C         1.0       0.7726278410874617  0.672896295938933   0.6669003265973173 1.0000   
         C         C         1.0       0.7544445187463044  0.6843178551757645  0.6729659096149907 1.0000   
         H         H         1.0       0.6514292894697822  0.5172094772202397  0.8401335355337379 1.0000   
         H         H         1.0       0.6639327350504374  0.6014744461000299  0.8166121240989309 1.0000   
         H         H         1.0       0.6660984155763005  0.6087894602961197  0.8842300844255779 1.0000   
         H         H         1.0       0.6618353331454803  0.5281008479928245  0.9025616970352938 1.0000   
         H         H         1.0       0.6162865879654206  0.5719710986754329  0.779679050281269  1.0000   
         H         H         1.0       0.5622174830695071  0.5485348056504857  0.759475129937792  1.0000   
         H         H         1.0       0.556035658163587   0.46637394446541985           0.7338367626254083 1.0000   
         H         H         1.0       0.6069101291229873  0.4892675511530062  0.7422508800898797 1.0000   
         H         H         1.0       0.721640078317929   0.6092052268722322  0.7807697844289256 1.0000   
         H         H         1.0       0.7415283659016442  0.6515933687702062  0.7428988754592804 1.0000   
         H         H         1.0       0.6607200140062028  0.6076947882960955  0.674627136095769  1.0000   
         H         H         1.0       0.6382117781214471  0.5625240128082977  0.7076691904148656 1.0000   
         H         H         1.0       0.7110661755695128  0.7071059699895613  0.7914910563467604 1.0000   
         H         H         1.0       0.7391518366029224  0.6964967813675402  0.7402673248106411 1.0000   
         H         H         1.0       0.6546445935211489  0.6461216013186244  0.679659541839664  1.0000   
         H         H         1.0       0.62818672535528    0.6599070910441835  0.7253831171719272 1.0000   
         H         H         1.0       0.7096768941564601  0.6167807408912465  0.6286630303127692 1.0000   
         H         H         1.0       0.69435690090293    0.6091125755097904  0.5624285390076874 1.0000   
         H         H         1.0       0.6869180908988641  0.6812527452445943  0.565256963911554  1.0000   
         H         H         1.0       0.7018091182105306  0.6926982214035483  0.6301725521320128 1.0000   
         H         H         1.0       0.7586732287506798  0.726377601114761   0.671790702211486  1.0000   
         H         H         1.0       0.8084928641129197  0.754011087410986   0.6373592182327378 1.0000   
         H         H         1.0       0.8156011485264342  0.6794206579007082  0.6459357291033594 1.0000   
         H         H         1.0       0.7626866333889476  0.6494565478815019  0.6730908720110369 1.0000   
         C         C         1.0       0.5219679656023107  0.5224670086800135  0.1629714069959456 1.0000   
         C         C         1.0       0.5199793271079785  0.5460474822967857  0.15270960475411988          1.0000   
         C         C         1.0       0.536990837745887   0.563867716583357   0.12381036179890947          1.0000   
         C         C         1.0       0.5600969244861058  0.5619254873216797  0.10534278155158616          1.0000   
         C         C         1.0       0.5623762692461219  0.5383330851873734  0.11467768005594592          1.0000   
         C         C         1.0       0.5428125056644865  0.5177058293314557  0.1423352910261242 1.0000   
         H         H         1.0       0.506864327894304   0.5533281268790953  0.1653995832692292 1.0000   
         H         H         1.0       0.5314053629393545  0.5800960510878873  0.11495745291838722          1.0000   
         H         H         1.0       0.5758574510001692  0.5327224681378051  0.09713079984466488          1.0000   
         H         H         1.0       0.5457950183486532  0.5001946828648124  0.14926555400062735          1.0000   
         C         C         1.0       0.6222992946867095  0.5772987419473103  0.05649937925328552          1.0000   
         C         C         1.0       0.595151279171998   0.5747540649032129  0.04267706336299182          1.0000   
         C         C         1.0       0.5874703714915608  0.5669638001502382  0.0050240087902135855        1.0000   
         C         C         1.0       0.6061331249549429  0.562742345627017   0.9819822770295458 1.0000   
         C         C         1.0       0.6332686473224824  0.565984336987679   0.996027052280155  1.0000   
         C         C         1.0       0.6416727995366805  0.5740671628576963  0.032250288334938926         1.0000   
         C         C         1.0       0.5754068119737357  0.5827890565393056  0.06797201519063223          1.0000   
         C         C         1.0       0.5982345435325088  0.618520136542553   0.0753593010120226 1.0000   
         C         C         1.0       0.6183067903351452  0.639173653346929   0.046280438932575274         1.0000   
         C         C         1.0       0.6409608378457062  0.6704295803538144  0.05276762843087379          1.0000   
         C         C         1.0       0.640135373003355   0.6832210225740164  0.08694250582087482          1.0000   
         C         C         1.0       0.6222454693950394  0.6637991274850746  0.11487868180852301          1.0000   
         C         C         1.0       0.6030704675059482  0.6320970603642796  0.11040783059617865          1.0000   
         C         C         1.0       0.5177907965367148  0.5470458480108907  0.0409075892330093 1.0000   
         C         C         1.0       0.49529489822162515           0.5389407578325187 0.01376622454384857          1.0000   
         C         C         1.0       0.49458235607538464           0.5591296057338111 0.9913276784940346 1.0000   
         C         C         1.0       0.518419984105378   0.5899524984920658  0.99904905904623   1.0000   
         C         C         1.0       0.543697386187635   0.6002303016339072  0.025563063554060905         1.0000   
         C         C         1.0       0.5445465593311334  0.5771943342147251  0.04472140047416495          1.0000   
         C         C         1.0       0.47341015204891296           0.5479066396198992 0.9533554941413088 1.0000   
         C         C         1.0       0.542606813361886   0.536711943521388   0.8943190539969669 1.0000   
         C         C         1.0       0.5141612888306467  0.5113068059567609  0.9071817374893721 1.0000   
         C         C         1.0       0.49161895332841565           0.5144251887882522 0.9250966825650387 1.0000   
         C         C         1.0       0.49748121088579067           0.5433820009089056 0.9300977094082146 1.0000   
         C         C         1.0       0.5267144950925902  0.568398929177642   0.9164936637665531 1.0000   
         C         C         1.0       0.5481631075832356  0.5653607915698561  0.897265446877806  1.0000   
         C         C         1.0       0.46967940662127533           0.5725786415176888 0.933458068703568  1.0000   
         C         C         1.0       0.4667512959230407  0.5917990210195951  0.9550613837334437 1.0000   
         C         C         1.0       0.46293565917800666           0.6132304622265928 0.9406298190260699 1.0000   
         C         C         1.0       0.46505936783508534           0.6176749842150248 0.9026783574674608 1.0000   
         C         C         1.0       0.4685374813297526  0.5990125972632341  0.879161231215439  1.0000   
         C         C         1.0       0.4703244244872395  0.5765473794445525  0.895156951002191  1.0000   
         C         C         1.0       0.4202042324975589  0.5007836644172996  0.9243034742429618 1.0000   
         C         C         1.0       0.3886396195418007  0.4738106311947931  0.9291180737619333 1.0000   
         C         C         1.0       0.3728983476899957  0.4675923726759654  0.9629448367969956 1.0000   
         C         C         1.0       0.3899791263105342  0.48933602315568    0.9906903640914261 1.0000   
         C         C         1.0       0.4211335631302998  0.5129886460536774  0.9877581301884162 1.0000   
         C         C         1.0       0.4379640331044128  0.5199941798332053  0.9556020232115096 1.0000   
         H         H         1.0       0.6256879365108768  0.5812958652082252  0.08564028496714249          1.0000   
         H         H         1.0       0.5696100094826676  0.5686306417434768  0.9914234934331229 1.0000   
         H         H         1.0       0.6004483788329189  0.557904925035941   0.9518163077319886 1.0000   
         H         H         1.0       0.6621551300342846  0.5767183089316902  0.043694214068733084         1.0000   
         H         H         1.0       0.6164221100850428  0.6308401356759901  0.01918348591191843          1.0000   
         H         H         1.0       0.6551113127569913  0.6834903995809253  0.027204992177936704         1.0000   
         H         H         1.0       0.6211998270212058  0.6705708807085929  0.14253303138258433          1.0000   
         H         H         1.0       0.5881415002500551  0.6189061964475772  0.1334278658902215 1.0000   
         H         H         1.0       0.5167479472141558  0.5279678283122632  0.05415256753946651          1.0000   
         H         H         1.0       0.47909814280349144           0.5133127675124636 0.00855252054705713          1.0000   
         H         H         1.0       0.5187425917897739  0.6080127360659224  0.9842107669693351 1.0000   
         H         H         1.0       0.5619664736017724  0.6247927360337062  0.02427112054168523          1.0000   
         H         H         1.0       0.5071792619498431  0.4880930100322179  0.9012142873610757 1.0000   
         H         H         1.0       0.4693394357662453  0.4935714464519471  0.9338833538287333 1.0000   
         H         H         1.0       0.5335249786031638  0.5920052391089857  0.9197541029736075 1.0000   
         H         H         1.0       0.5686291614150146  0.5851691600045418  0.8846161942611961 1.0000   
         H         H         1.0       0.46508366320735645           0.5895312867564073 0.9851938559904573 1.0000   
         H         H         1.0       0.4619482968727343  0.6290151930209275  0.9586903588021648 1.0000   
         H         H         1.0       0.47114198345277875           0.6028478981990453 0.8501729667303424 1.0000   
         H         H         1.0       0.47122898402875546           0.5608617595346926 0.8763134859345758 1.0000   
         H         H         1.0       0.43315678645512745           0.503662220378183  0.897711100428898  1.0000   
         H         H         1.0       0.37695740879821643           0.4574835746673129 0.9055213116126958 1.0000   
         H         H         1.0       0.3776797290172126  0.48421121182211685           0.01782336892446068          1.0000   
         H         H         1.0       0.4318360447385573  0.5276222787865057  0.011947295322531915         1.0000   
         C         C         1.0       0.5467824313768983  0.8684679461469865  0.8846062897826731 1.0000   
         C         C         1.0       0.5706035310106143  0.8736924792791217  0.8618892679613763 1.0000   
         C         C         1.0       0.5967159731718652  0.8748984924697718  0.8771051799975199 1.0000   
         C         C         1.0       0.5985084481483343  0.8695199262785002  0.914561860209648  1.0000   
         C         C         1.0       0.5700443337446921  0.8573566217322312  0.9348379353971542 1.0000   
         C         C         1.0       0.545767394098504   0.8585813533976382  0.9202325226536002 1.0000   
         H         H         1.0       0.5717687946578992  0.8828683585413153  0.8352348617270168 1.0000   
         H         H         1.0       0.6177916390833089  0.8825371462017894  0.8594133144208691 1.0000   
         H         H         1.0       0.5675435357309115  0.8489056157464454  0.9631886731220548 1.0000   
         H         H         1.0       0.528184824951714   0.8546186924878917  0.9386270816637095 1.0000   
         C         C         1.0       0.6218203173872795  0.907327622632443   0.9868054810304752 1.0000   
         C         C         1.0       0.6339744666660291  0.8911464153500603  0.9753874238168964 1.0000   
         C         C         1.0       0.6491487376395546  0.8851754621739967  0.0027780041119642718        1.0000   
         C         C         1.0       0.6492053347453701  0.8926711988327447  0.04007251144836066          1.0000   
         C         C         1.0       0.6296202135156248  0.9011991378754084  0.049788403260117686         1.0000   
         C         C         1.0       0.6186462263542206  0.9125342029165212  0.02388440510429901          1.0000   
         C         C         1.0       0.6301583262974118  0.8769868076073243  0.933653355352162  1.0000   
         C         C         1.0       0.6644453354821319  0.9047538105793027  0.9164891273096633 1.0000   
         C         C         1.0       0.693204661980927   0.9063014369474826  0.9244710927963141 1.0000   
         C         C         1.0       0.72250839901618    0.927902679880099   0.9082620142961717 1.0000   
         C         C         1.0       0.7235079868476063  0.9495055334694911  0.8865250080191882 1.0000   
         C         C         1.0       0.6966804883891683  0.9504448961879008  0.8796710013582855 1.0000   
         C         C         1.0       0.6679990658629164  0.9280296803451894  0.894771961877629  1.0000   
         C         C         1.0       0.6167078191305998  0.8236215011749749  0.9564201714002549 1.0000   
         C         C         1.0       0.6218751752216433  0.8011786313591244  0.9552271394640461 1.0000   
         C         C         1.0       0.6361060306260576  0.7989000371039714  0.9227308057956152 1.0000   
         C         C         1.0       0.6365824592141193  0.81374602931618    0.8908950469315133 1.0000   
         C         C         1.0       0.634049242960067   0.8371764036793066  0.8946710395433642 1.0000   
         C         C         1.0       0.6274521815804107  0.8463490149732489  0.928269102694424  1.0000   
         C         C         1.0       0.6595104719965523  0.7873453079995695  0.9248286664520754 1.0000   
         C         C         1.0       0.7526558915382163  0.8741575583817909  0.9337381470590391 1.0000   
         C         C         1.0       0.7318427831213635  0.8642737543272536  0.9632817402787435 1.0000   
         C         C         1.0       0.701799425578652   0.8374778538613724  0.9610271060024023 1.0000   
         C         C         1.0       0.6924819150820141  0.8193361929155951  0.9280030658198516 1.0000   
         C         C         1.0       0.7124627683191157  0.8325965889916137  0.8976522315274913 1.0000   
         C         C         1.0       0.7423269796089536  0.8587255108301667  0.9000283941545532 1.0000   
         C         C         1.0       0.6574368323292709  0.7649699997989858  0.892809458232036  1.0000   
         C         C         1.0       0.6324992877994319  0.7527055909761808  0.8659297130625683 1.0000   
         C         C         1.0       0.6342646727145188  0.7400173403262628  0.8333315943426872 1.0000   
         C         C         1.0       0.65766094125468    0.736018658361599   0.8291066091302542 1.0000   
         C         C         1.0       0.6805960590166341  0.7449218471982723  0.8561947115356463 1.0000   
         C         C         1.0       0.6804484371583837  0.7596852702609245  0.8875921800922876 1.0000   
         C         C         1.0       0.6797838937701466  0.7747967573165264  0.9880092164048451 1.0000   
         C         C         1.0       0.6738099272929094  0.7615475779635809  0.02206465331867058          1.0000   
         C         C         1.0       0.6439907099839376  0.7389401028073942  0.0324769390062809 1.0000   
         C         C         1.0       0.6182612201710379  0.7282399402111669  0.007391726191307235         1.0000   
         C         C         1.0       0.6247608308401359  0.7441821421803211  0.9735523804650104 1.0000   
         C         C         1.0       0.6548934219065035  0.7684775397035981  0.9641641491726282 1.0000   
         H         H         1.0       0.6104874909295821  0.9139664478351519  0.9672820573784574 1.0000   
         H         H         1.0       0.663880499280947   0.8763175147776278  0.9964978543900845 1.0000   
         H         H         1.0       0.6614658256348271  0.8886185325579589  0.05998311369623388          1.0000   
         H         H         1.0       0.6093090612605668  0.9249802682681468  0.03486556916841321          1.0000   
         H         H         1.0       0.6915685916423157  0.8875200588015578  0.9390010492366881 1.0000   
         H         H         1.0       0.7427770782429617  0.9283331265961635  0.915296813159767  1.0000   
         H         H         1.0       0.6991172413932657  0.9692746379384487  0.8625452489536236 1.0000   
         H         H         1.0       0.6478796068800065  0.9301964247337057  0.8948433104390652 1.0000   
         H         H         1.0       0.6131672135759884  0.8294833709303697  0.9848059119100254 1.0000   
         H         H         1.0       0.6236162814265842  0.7931988941062584  0.9815621918547457 1.0000   
         H         H         1.0       0.6417363672207296  0.8103678198644703  0.86310375295251   1.0000   
         H         H         1.0       0.639565816004937   0.8528815596245154  0.8732080903874403 1.0000   
         H         H         1.0       0.7406771713158419  0.8794329993997185  0.9875426786140858 1.0000   
         H         H         1.0       0.6851441930858799  0.8310375401389807  0.9840790432351171 1.0000   
         H         H         1.0       0.7078495179334644  0.8215272760206916  0.8711125421432865 1.0000   
         H         H         1.0       0.7576044917705347  0.8657786611008453  0.8767592105882996 1.0000   
         H         H         1.0       0.6137953367443136  0.7573615607453135  0.8699565948157616 1.0000   
         H         H         1.0       0.6153267508541973  0.7318649031609038  0.8116621711353484 1.0000   
         H         H         1.0       0.7015968085440164  0.7451715825964178  0.8488269292820307 1.0000   
         H         H         1.0       0.6996368801009004  0.7672686940049706  0.9083546632371039 1.0000   
         H         H         1.0       0.7043646898151599  0.7938951253611931  0.9822860964138561 1.0000   
         H         H         1.0       0.6929949151785293  0.769247877807261   0.0422187425730991 1.0000   
         H         H         1.0       0.594181616733414   0.7083608788572332  0.010229093410969892         1.0000   
         H         H         1.0       0.6053651613991575  0.7371293587657642  0.9533592725149033 1.0000   
         C         C         1.0       0.7659158411907371  0.9563167422230077  0.812864706267988  1.0000   
         C         C         1.0       0.7827004747525989  0.9457498081625125  0.7979463734991871 1.0000   
         C         C         1.0       0.7771332720672018  0.936409868691299   0.7601238483809237 1.0000   
         C         C         1.0       0.7571118164825674  0.9395528616117329  0.7369721789597441 1.0000   
         C         C         1.0       0.741210094264201   0.9504715792377713  0.7545293445059861 1.0000   
         C         C         1.0       0.7450439233783935  0.9586555161570461  0.792231353488429  1.0000   
         H         H         1.0       0.7975196386578141  0.9417027223173702  0.816806439237087  1.0000   
         H         H         1.0       0.7880472559527264  0.9259495870395069  0.7486731805202849 1.0000   
         H         H         1.0       0.7259332638555444  0.9535795563565561  0.7379313795558367 1.0000   
         H         H         1.0       0.7317642066374092  0.966944949258293   0.8039789264443811 1.0000   
         C         C         1.0       0.6947684979774877  0.9277884710700409  0.18553044847091438          1.0000   
         C         C         1.0       0.7249847126446451  0.9458531951254242  0.1697407493051133 1.0000   
         C         C         1.0       0.7264323136988361  0.9540901860709563  0.1331708354332699 1.0000   
         C         C         1.0       0.7001106843018629  0.9486417507176147  0.11492269887245565          1.0000   
         C         C         1.0       0.6721660871425272  0.9357350797220115  0.13280150194887197          1.0000   
         C         C         1.0       0.6684553109428732  0.9237626533560617  0.16835694701329085          1.0000   
         C         C         1.0       0.7549797988622153  0.9334631702455332  0.6930725590845378 1.0000   
         C         C         1.0       0.7514929871893146  0.9031214064316296  0.6806185350457001 1.0000   
         C         C         1.0       0.7597953577807677  0.9136321198732262  0.14695351794505185          1.0000   
         C         C         1.0       0.7560128341180896  0.8867828545526067  0.13712514849308466          1.0000   
         C         C         1.0       0.7396845652696943  0.8471276298487013  0.6554427717752142 1.0000   
         C         C         1.0       0.7265744015773223  0.849721229711787   0.6880012104585872 1.0000   
         C         C         1.0       0.7358022361496968  0.8777246576079317  0.7034706966345939 1.0000   
         C         C         1.0       0.7869949871347494  0.9914979216046873  0.683326320605219  1.0000   
         C         C         1.0       0.8116504046288039  0.017507943678231497         0.667826320310513  1.0000   
         C         C         1.0       0.8377851401051383  0.019577357434633624         0.6523038876917414 1.0000   
         C         C         1.0       0.8399824683352283  0.9955001929474585  0.656896211674863  1.0000   
         C         C         1.0       0.8162137800420194  0.9690875609085446  0.6736946802728877 1.0000   
         C         C         1.0       0.7875720477827444  0.9657781187169425  0.683235677100451  1.0000   
         C         C         1.0       0.8618331435264521  0.06430350609783009           0.1160952275475351 1.0000   
         C         C         1.0       0.7917726527115128  0.025910169698464047         0.020832060075925307         1.0000   
         C         C         1.0       0.7966093983545153  0.050265072794901444         0.040988653536917496         1.0000   
         C         C         1.0       0.8206432608686942  0.06425485896122973           0.06876958152939205          1.0000   
         C         C         1.0       0.8386591118329833  0.05241616545749905           0.07842743443341638          1.0000   
         C         C         1.0       0.8327436960542356  0.027384796325960137         0.05730185678087296          1.0000   
         C         C         1.0       0.8106158105731355  0.015204744050974384         0.02847409694867986          1.0000   
         C         C         1.0       0.8953498105307862  0.06927457678701598           0.11002687606351458          1.0000   
         C         C         1.0       0.9131228705322674  0.052244354122725316         0.6321967310243919 1.0000   
         C         C         1.0       0.9431554365701859  0.06968687569297381           0.12943248889101588          1.0000   
         C         C         1.0       0.9534983776513197  0.07373321842331793           0.09271013950177487          1.0000   
         C         C         1.0       0.937299164071814   0.07896510357279465           0.06571948041819997          1.0000   
         C         C         1.0       0.9106712273966306  0.07749557512341519           0.0753280610247491 1.0000   
         C         C         1.0       0.8856428111058895  0.1044023862720197  0.6197579106614663 1.0000   
         C         C         1.0       0.8927312921218841  0.13157993998340287           0.6343603337980891 1.0000   
         C         C         1.0       0.8910776892495276  0.1351612099746653  0.6730315670648219 1.0000   
         C         C         1.0       0.8847025678901324  0.11187601956198591           0.6966770452796252 1.0000   
         C         C         1.0       0.8777107043479431  0.08541949246675958           0.6811611859294858 1.0000   
         C         C         1.0       0.8734816265835851  0.07929041178451487           0.642879168628634  1.0000   
         H         H         1.0       0.6893880767752918  0.9007306693536257  0.7119812915130607 1.0000   
         H         H         1.0       0.7489216929401614  0.9636694556765878  0.11724634806645584          1.0000   
         H         H         1.0       0.7038401604476517  0.961137707129706   0.09047779221810526          1.0000   
         H         H         1.0       0.646228968395341   0.9121313394498946  0.18333685628482232          1.0000   
         H         H         1.0       0.7722397790782342  0.9300392513245437  0.12548884983054354          1.0000   
         H         H         1.0       0.7619122418643578  0.8825112509416286  0.11034167990935706          1.0000   
         H         H         1.0       0.713674310151624   0.8317458024214717  0.7072970606768747 1.0000   
         H         H         1.0       0.7245326954349647  0.8763147248196442  0.7308371551680987 1.0000   
         H         H         1.0       0.7655255873734775  0.9904225436316687  0.6897003385867823 1.0000   
         H         H         1.0       0.8059618139001788  0.0340727446594673  0.6645687386368254 1.0000   
         H         H         1.0       0.8631533791727648  0.014429156612630445         0.1344622687415975 1.0000   
         H         H         1.0       0.8190752887662218  0.950581454255172   0.6750555298390719 1.0000   
         H         H         1.0       0.781627272530137   0.05699711405815622           0.03466236078205931          1.0000   
         H         H         1.0       0.8233901121003173  0.08333759240425447           0.0819636588221957 1.0000   
         H         H         1.0       0.8419022075633681  0.014189470136259708         0.06692657963116999          1.0000   
         H         H         1.0       0.8056305363964236  0.9943870018174966  0.016396987311695366         1.0000   
         H         H         1.0       0.9078286288026205  0.05040722518707108           0.6639885474045693 1.0000   
         H         H         1.0       0.9588169985045141  0.058661742546510125         0.6407691818465734 1.0000   
         H         H         1.0       0.9432938504316254  0.08027068006502829           0.037339463431167896         1.0000   
         H         H         1.0       0.8997634065822643  0.0824564259260218  0.05460300695741771          1.0000   
         H         H         1.0       0.8819843721624024  0.11770378391598524           0.0722905687547577 1.0000   
         H         H         1.0       0.8987403058914736  0.14954921852345754           0.6143980621550439 1.0000   
         H         H         1.0       0.888268272885001   0.11723996675556511           0.7267232719759039 1.0000   
         H         H         1.0       0.8721495030133661  0.06720516361090034           0.7016171861316383 1.0000   
         C         C         1.0       0.9312389241643907  0.5018944187693913  0.6284456716590543 1.0000   
         C         C         1.0       0.9575430149788589  0.5174297255941777  0.6033391581314813 1.0000   
         C         C         1.0       0.9886546179898921  0.5313105159874616  0.6153931850916009 1.0000   
         C         C         1.0       0.9943806484142049  0.5277015931326501  0.6527864525200171 1.0000   
         C         C         1.0       0.968485971539244   0.5059412214345038  0.6741405093269204 1.0000   
         C         C         1.0       0.937655194581236   0.4965901158276124  0.663821527712396  1.0000   
         H         H         1.0       0.9509519326427289  0.521121780651613   0.5750226551930757 1.0000   
         H         H         1.0       0.008496333929423283          0.5459424856754859 0.5966445082225451 1.0000   
         H         H         1.0       0.9728937799464055  0.5012219492703291  0.7024661311451005 1.0000   
         H         H         1.0       0.9174558692825691  0.48353400069165003           0.682515425206453  1.0000   
         C         C         1.0       0.004347756872137953          0.5706551355669108 0.7118109281083231 1.0000   
         C         C         1.0       0.026649516179682253          0.5629916153174671 0.7117766873987453 1.0000   
         C         C         1.0       0.04350226086927056           0.5674535716896775 0.7435948891800193 1.0000   
         C         C         1.0       0.03428950871265246           0.573310052301091  0.7769763853483385 1.0000   
         C         C         1.0       0.007969121837233972          0.5752509947855952 0.7783571128197364 1.0000   
         C         C         1.0       0.9945060508485724  0.5762615423382168  0.744682528620153  1.0000   
         C         C         1.0       0.030550939349281103          0.5500161607149733 0.6737872400146281 1.0000   
         C         C         1.0       0.05839961696214102           0.5812349737689777 0.6550722798055816 1.0000   
         C         C         1.0       0.09162667657075318           0.5950711927773872 0.6608423398518465 1.0000   
         C         C         1.0       0.11280027472085451           0.6216653334813184 0.6447510742119524 1.0000   
         C         C         1.0       0.10435007286303041           0.6361670061574102 0.622638240900072  1.0000   
         C         C         1.0       0.07224103002226334           0.6233024453076534 0.6168218945066933 1.0000   
         C         C         1.0       0.049441222253896466          0.5970773758896964 0.6337082075294993 1.0000   
         C         C         1.0       0.04184264370449142           0.5126026463793577 0.7070093807966448 1.0000   
         C         C         1.0       0.04879794331096576           0.4919212351727259 0.7042720415494231 1.0000   
         C         C         1.0       0.05269334840696627           0.4821050205418084 0.6696079554036882 1.0000   
         C         C         1.0       0.053739092286670065          0.4984649112109665 0.6375261893953141 1.0000   
         C         C         1.0       0.0484661669762696  0.5200766222919797  0.6413736294722243 1.0000   
         C         C         1.0       0.04147187230571947           0.52703300550223   0.675640736310565  1.0000   
         C         C         1.0       0.06233273989749488           0.45932627434923456          0.6666788041872224 1.0000   
         C         C         1.0       0.16344060985169986           0.5195802338357199 0.6310065796787835 1.0000   
         C         C         1.0       0.1538521559913585  0.5211260572674835  0.6656601716578894 1.0000   
         C         C         1.0       0.12187498653316564           0.5035128188444786 0.6755997396482587 1.0000   
         C         C         1.0       0.09876958378168177           0.4826843948263156 0.6512941374064721 1.0000   
         C         C         1.0       0.1082021982508905  0.4835927301290378  0.613934417566994  1.0000   
         C         C         1.0       0.14042893939517573           0.5012552851254032 0.6045900660811532 1.0000   
         C         C         1.0       0.041944397578141945          0.43189530310100677          0.6382125962164735 1.0000   
         C         C         1.0       0.008944848368095837          0.4180073911258468 0.6309670421411533 1.0000   
         C         C         1.0       0.9934415984608251  0.3966150503206838  0.6030649687060647 1.0000   
         C         C         1.0       0.008545278378663257          0.3856483816012762 0.5842758810025683 1.0000   
         C         C         1.0       0.04029136953473844           0.39740481668601474          0.5917190714503356 1.0000   
         C         C         1.0       0.0555122729073636  0.417984693854377   0.6207814436923442 1.0000   
         C         C         1.0       0.08915047842251611           0.43782817280040875          0.7063007295193728 1.0000   
         C         C         1.0       0.09252490399811086           0.42459858734778805          0.7367321829819229 1.0000   
         C         C         1.0       0.06995902224612216           0.41393249162992773          0.7666306622594461 1.0000   
         C         C         1.0       0.04292049265856379           0.41311805462895274          0.7603967321232622 1.0000   
         C         C         1.0       0.04073631686091339           0.42715719286060766          0.7294069431797914 1.0000   
         C         C         1.0       0.06430472786069319           0.4421156870028867 0.7026043164967496 1.0000   
         H         H         1.0       0.992598575021415   0.5682961042453055  0.6863369000011172 1.0000   
         H         H         1.0       0.06379525145216025           0.5664051810871614 0.7447426123288057 1.0000   
         H         H         1.0       0.048005462402514486          0.5739148001599197 0.8022513027998678 1.0000   
         H         H         1.0       0.9750879681690138  0.5788951044541083  0.7448186245275487 1.0000   
         H         H         1.0       0.10049545902416004           0.5824573054582256 0.6723115112489852 1.0000   
         H         H         1.0       0.13803926528890684           0.6348573454144449 0.6510300627999189 1.0000   
         H         H         1.0       0.06199936694747277           0.6334870345136108 0.6011016680843917 1.0000   
         H         H         1.0       0.024476141842320942          0.5887895772931814 0.6333134435154338 1.0000   
         H         H         1.0       0.040884667080493875          0.5201114289072736 0.7358896181293911 1.0000   
         H         H         1.0       0.04898032421854692           0.4813034433867232 0.7304133122159315 1.0000   
         H         H         1.0       0.05885947620375953           0.49255821996470756          0.6103692054176343 1.0000   
         H         H         1.0       0.046279345449171894          0.5305417167468113 0.6166949261168717 1.0000   
         H         H         1.0       0.1715981625567478  0.5371050550230945  0.6877736489834986 1.0000   
         H         H         1.0       0.11492162767083647           0.5095574263869633 0.7016624231414527 1.0000   
         H         H         1.0       0.09264688417147493           0.47083624252503137          0.5923755545898487 1.0000   
         H         H         1.0       0.14640222327548208           0.49962696817910174          0.5760638901596482 1.0000   
         H         H         1.0       0.9970690209582379  0.4240166701526767  0.6516596517907334 1.0000   
         H         H         1.0       0.9676998991716963  0.38588401934272176           0.6002537857219913 1.0000   
         H         H         1.0       0.05401244701602881           0.39338230192588075          0.5735634572449916 1.0000   
         H         H         1.0       0.0805929265117793  0.4275530482186155  0.6288664460588661 1.0000   
         H         H         1.0       0.1084806469891324  0.44518495747377906           0.6863371847640172 1.0000   
         H         H         1.0       0.11206198758745378           0.423182663173161  0.7390045120115082 1.0000   
         H         H         1.0       0.025690507237386973          0.40635632335344707          0.7811795914487387 1.0000   
         H         H         1.0       0.020568777183071596          0.4285021405091307 0.7255632215461134 1.0000   
         C         C         1.0       0.14386011580071503           0.6394840545397339 0.01785752799937912          1.0000   
         C         C         1.0       0.16292799521716925           0.6389111948517486 0.990716356137265  1.0000   
         C         C         1.0       0.15849240277805618           0.6420738418906415 0.9531976956869209 1.0000   
         C         C         1.0       0.13416736179037778           0.6453082477816443 0.9419347484461235 1.0000   
         C         C         1.0       0.11665381166180895           0.649091566098162  0.969678653764481  1.0000   
         C         C         1.0       0.12242195642441421           0.6459760202014757 0.007116591224167301         1.0000   
         H         H         1.0       0.18165339368625671           0.6370049027857815 0.9977961033180875 1.0000   
         H         H         1.0       0.17344465456803532           0.640543482997292  0.9327557305610076 1.0000   
         H         H         1.0       0.09953907902140902           0.6539718096491858 0.962126620478688  1.0000   
         H         H         1.0       0.10859814897973474           0.6507930387668839 0.024297170553072567         1.0000   
         C         C         1.0       0.06794995221839055           0.619080944983353  0.9026423413087876 1.0000   
         C         C         1.0       0.09695337966032    0.642155774796082   0.8856846124962214 1.0000   
         C         C         1.0       0.09339783336794583           0.6561025696458868 0.8556626855568294 1.0000   
         C         C         1.0       0.06524818977493368           0.6482673190536831 0.8412073955995751 1.0000   
         C         C         1.0       0.03712035449521833           0.6225801217048634 0.8562752768407154 1.0000   
         C         C         1.0       0.03793616402253219           0.6096738700632802 0.8879711540560772 1.0000   
         C         C         1.0       0.1298552404611552  0.6494046022612019  0.8989468396171385 1.0000   
         C         C         1.0       0.1339643885376408  0.6283515132593894  0.8695299525968353 1.0000   
         C         C         1.0       0.14519923378352576           0.638751403132622  0.8330346291716406 1.0000   
         C         C         1.0       0.139851901007799   0.6184719622118521  0.8053989574243158 1.0000   
         C         C         1.0       0.12778683078685238           0.5882351068403479 0.8120473796970221 1.0000   
         C         C         1.0       0.11738171424004258           0.5774686847105734 0.8472710757286096 1.0000   
         C         C         1.0       0.12103069758411432           0.5978181291652319 0.8750772625205805 1.0000   
         C         C         1.0       0.15394191214086653           0.7081088753488256 0.907820604455821  1.0000   
         C         C         1.0       0.17299851932860003           0.7375784938749964 0.8948940740201164 1.0000   
         C         C         1.0       0.20190699002547313           0.7475876860208811 0.8763133873464725 1.0000   
         C         C         1.0       0.20969137268383425           0.7267134382499734 0.8731423717150719 1.0000   
         C         C         1.0       0.18851803098491066           0.6973173949704329 0.882269488232803  1.0000   
         C         C         1.0       0.15859290488956898           0.6860537824315006 0.8955719130827019 1.0000   
         C         C         1.0       0.2179727372218754  0.77825582785568    0.8521695928714307 1.0000   
         C         C         1.0       0.1479263008236965  0.7331886881318519  0.7588088168922165 1.0000   
         C         C         1.0       0.14692707832891755           0.7534854695542144 0.783984364369474  1.0000   
         C         C         1.0       0.16623401913422742           0.7630036499773707 0.8155117565596429 1.0000   
         C         C         1.0       0.1941221248042599  0.7644463168892336  0.8158438575468158 1.0000   
         C         C         1.0       0.1966400034483037  0.7468038014744122  0.7901314857007994 1.0000   
         C         C         1.0       0.1722609598275879  0.7296500969321219  0.7628470295835582 1.0000   
         C         C         1.0       0.25540071046755286           0.7931256627813881 0.8397702427727252 1.0000   
         C         C         1.0       0.2767021604105889  0.7956309424697866  0.8658299029979435 1.0000   
         C         C         1.0       0.30819738631094956           0.8084165654134695 0.8577470169963313 1.0000   
         C         C         1.0       0.31938006294233007           0.8212282317756623 0.8223895034350042 1.0000   
         C         C         1.0       0.2990345765165695  0.8200794652974924  0.7953885247935906 1.0000   
         C         C         1.0       0.2673150565310638  0.8074609683733793  0.8061492875886995 1.0000   
         C         C         1.0       0.22227057656357793           0.8291072426848693 0.8458912793825871 1.0000   
         C         C         1.0       0.2202190775112662  0.8509622610290943  0.8595157311630564 1.0000   
         C         C         1.0       0.21735741745733952           0.8522171190546107 0.8974700190251731 1.0000   
         C         C         1.0       0.21554767717954035           0.8315076843413921 0.921150951570798  1.0000   
         C         C         1.0       0.21405501901655544           0.8074783459838278 0.9071036530288462 1.0000   
         C         C         1.0       0.21874680856929726           0.8059581118175562 0.8695791186043116 1.0000   
         H         H         1.0       0.0678163577833448  0.6055559873053822  0.9246662474954912 1.0000   
         H         H         1.0       0.11442848522546106           0.6750041469266159 0.8411215489186842 1.0000   
         H         H         1.0       0.06459799170322607           0.6602456904721946 0.8161207461846275 1.0000   
         H         H         1.0       0.0168199876915609  0.5903058453187068  0.8986662783813105 1.0000   
         H         H         1.0       0.15020654478761414           0.6606982285924586 0.8250613745112343 1.0000   
         H         H         1.0       0.14246885436866327           0.6276840874140931 0.7772185263539318 1.0000   
         H         H         1.0       0.10708056888359846           0.5533296545045182 0.854531308784918  1.0000   
         H         H         1.0       0.11173775659063664           0.5871482781366688 0.9016302629580188 1.0000   
         H         H         1.0       0.13152520111347302           0.701260297422477  0.9231301358892118 1.0000   
         H         H         1.0       0.16376454114289402           0.7511278462211067 0.8972523049350373 1.0000   
         H         H         1.0       0.23019603428537613           0.7332158714391991 0.8560720957499485 1.0000   
         H         H         1.0       0.19567895414729983           0.681843848451243  0.873738875889467  1.0000   
         H         H         1.0       0.12539310411346416           0.7518941320879428 0.7839876969821539 1.0000   
         H         H         1.0       0.1583686821525082  0.7708179055439045  0.8367314732387731 1.0000   
         H         H         1.0       0.21210199518290362           0.7390083444292184 0.7923295175956143 1.0000   
         H         H         1.0       0.17603556672915577           0.7167341568567619 0.7440422110471776 1.0000   
         H         H         1.0       0.2672017968264783  0.7884330489474458  0.8941195404359339 1.0000   
         H         H         1.0       0.32355520796492404           0.8079129999136855 0.879394011059231  1.0000   
         H         H         1.0       0.3053908700495057  0.827071921639527   0.7673614508690219 1.0000   
         H         H         1.0       0.2523365897635751  0.8099225582170372  0.7877038908181626 1.0000   
         H         H         1.0       0.2274336818332599  0.8304587550565891  0.8168951657938613 1.0000   
         H         H         1.0       0.2227280672046132  0.8685638964370888  0.842774038168406  1.0000   
         H         H         1.0       0.21379094446785424           0.8312987614404691 0.9506342943366071 1.0000   
         H         H         1.0       0.211422830039739   0.7913663449272262  0.9283604440222675 1.0000   
         C         C         1.0       0.02199317064653128           0.9284942980918567 0.0036902061150625443        1.0000   
         C         C         1.0       0.009229858142674852          0.9051102735425056 0.9771602114091801 1.0000   
         C         C         1.0       0.9835810420240924  0.8759726997004647  0.9835413038355271 1.0000   
         C         C         1.0       0.972681451912521   0.8681772988338757  0.020588297171018732         1.0000   
         C         C         1.0       0.9821204841771154  0.8924620880599059  0.045880348072469435         1.0000   
         C         C         1.0       0.006678968963638177          0.9214070112126207 0.03749494674898024          1.0000   
         H         H         1.0       0.019317810050455853          0.9076376683254114 0.9493126370715018 1.0000   
         H         H         1.0       0.97627470240858    0.8586301648491255  0.9624574848128349 1.0000   
         H         H         1.0       0.9580001156975764  0.8708356018735678  0.5320823100364085 1.0000   
         H         H         1.0       0.997777152801624   0.9197152253878422  0.5024417840275404 1.0000   
         C         C         1.0       0.005628044458692472          0.8528069947429594 0.07155291830002342          1.0000   
         C         C         1.0       0.9724952734251084  0.8340222938123718  0.07086903504436193          1.0000   
         C         C         1.0       0.9573162450531243  0.8176697530258822  0.10343062501633504          1.0000   
         C         C         1.0       0.9714860472623847  0.813361615291642   0.6089753305911267 1.0000   
         C         C         1.0       0.0045031304125127125         0.8394781577120122 0.6089860085776163 1.0000   
         C         C         1.0       0.0174371571015155  0.8528006574401669  0.5751110527124489 1.0000   
         C         C         1.0       0.9541215545839827  0.8333883496326652  0.03602396921441131          1.0000   
         C         C         1.0       0.9496860953911077  0.807320933661661   0.007892045184021201         1.0000   
         C         C         1.0       0.9208592760176899  0.777614068832479   0.0057148639252961875        1.0000   
         C         C         1.0       0.9158509283583517  0.757247754964475   0.9786812867319422 1.0000   
         C         C         1.0       0.9403710334290796  0.7660226519467532  0.9526955590546492 1.0000   
         C         C         1.0       0.9689442853106259  0.7939550977574452  0.9561045843293215 1.0000   
         C         C         1.0       0.9749345469936223  0.8127312324718339  0.9855395551521025 1.0000   
         C         C         1.0       0.9056690511436931  0.8285335778339263  0.07394520555563289          1.0000   
         C         C         1.0       0.8748780526075952  0.8216853387601074  0.07530153156525166          1.0000   
         C         C         1.0       0.8577227543451844  0.8169219102377213  0.04240657082789978          1.0000   
         C         C         1.0       0.8721828204069367  0.8174468572434214  0.008295461919422431         1.0000   
         C         C         1.0       0.9018551061049392  0.8234923170402599  0.007919206924604572         1.0000   
         C         C         1.0       0.9197095086000031  0.8277253945696087  0.04088803803950625          1.0000   
         C         C         1.0       0.8211686651738883  0.8085156842518836  0.03753324915296763          1.0000   
         C         C         1.0       0.7653476089145065  0.7113768568860932  0.9998821476458606 1.0000   
         C         C         1.0       0.762953452748574   0.6986121917829106  0.5298001260682418 1.0000   
         C         C         1.0       0.7834380469983453  0.7300909880381522  0.535851998645577  1.0000   
         C         C         1.0       0.8017542162464649  0.7727232859393709  0.02190306544185594          1.0000   
         C         C         1.0       0.7886730472571323  0.76428449885813    0.9867267887932201 1.0000   
         C         C         1.0       0.7707418695443228  0.7339497625983945  0.9755127808218204 1.0000   
         C         C         1.0       0.8185352631958644  0.8294790715007451  0.009735906531593397         1.0000   
         C         C         1.0       0.8461231423852174  0.8589390136041719  0.0024667352920086927        1.0000   
         C         C         1.0       0.8435090063036672  0.8781593559393692  0.9798649532296011 1.0000   
         C         C         1.0       0.8145614319539127  0.868667259933839   0.9628652791924024 1.0000   
         C         C         1.0       0.7871034306701188  0.8396087110374065  0.9703793616029895 1.0000   
         C         C         1.0       0.7890372652448141  0.8215195416685428  0.9948867889054028 1.0000   
         C         C         1.0       0.7718780728613379  0.7884600510597742  0.08427513587818614          1.0000   
         C         C         1.0       0.7517759853684328  0.775547259738424   0.6046377717113562 1.0000   
         C         C         1.0       0.7688772387585091  0.8036472658795957  0.6217784867725481 1.0000   
         C         C         1.0       0.8060233914204994  0.8409346948529114  0.12459299900910126          1.0000   
         C         C         1.0       0.8212867440808722  0.8374509959157299  0.09517109635364318          1.0000   
         C         C         1.0       0.8040662421717488  0.8103035639061295  0.07465325877188311          1.0000   
         H         H         1.0       0.02033467014603718           0.8657410678054553 0.04859777609091753          1.0000   
         H         H         1.0       0.93156245888318    0.8003240567866604  0.1035847938097314 1.0000   
         H         H         1.0       0.9615479855591944  0.8031870437158025  0.6344519092337951 1.0000   
         H         H         1.0       0.041271935239921786          0.8726636051174803 0.573834376487322  1.0000   
         H         H         1.0       0.9021289424165123  0.7718344509422027  0.025547048741282996         1.0000   
         H         H         1.0       0.8917816496369788  0.7344546006469208  0.9754429187178387 1.0000   
         H         H         1.0       0.988499836895753   0.7964378572843563  0.9395939156328934 1.0000   
         H         H         1.0       0.9986882931949371  0.8337717271114151  0.9864993091333363 1.0000   
         H         H         1.0       0.9167879929932463  0.8315737435405354  0.10273916770908809          1.0000   
         H         H         1.0       0.8617754332594075  0.8095586268699588  0.5781273081551147 1.0000   
         H         H         1.0       0.8587123349240037  0.8135008260552183  0.9832970032257424 1.0000   
         H         H         1.0       0.9109657691302728  0.8224423130150309  0.9813684978293239 1.0000   
         H         H         1.0       0.760729044729705   0.6816923609812803  0.5480854858178459 1.0000   
         H         H         1.0       0.7963345231683941  0.7379621196093182  0.5616247571466443 1.0000   
         H         H         1.0       0.795485288075058   0.781855085563911   0.9658546861626388 1.0000   
         H         H         1.0       0.7656143929338053  0.7279067918444103  0.9467815568363179 1.0000   
         H         H         1.0       0.8693036812338287  0.868760690661873   0.013693713877228397         1.0000   
         H         H         1.0       0.8634644017055537  0.8990177054401721  0.9703834432106704 1.0000   
         H         H         1.0       0.7655913062321571  0.832419403484913   0.959793290345691  1.0000   
         H         H         1.0       0.7654052198724317  0.7982554059716453  0.9989148770381417 1.0000   
         H         H         1.0       0.7578606875235441  0.7681203308005581  0.06731157479082928          1.0000   
         H         H         1.0       0.7262632264834807  0.7582220039708851  0.6100966054721569 1.0000   
         H         H         1.0       0.8193924802922964  0.8646886976318627  0.13298545400012585          1.0000   
         H         H         1.0       0.8444692726797112  0.8559223876340166  0.08523293030345513          1.0000   
         C         C         1.0       0.943055667223308   0.7311979897034604  0.8582218726476635 1.0000   
         C         C         1.0       0.9176209986410289  0.7106874772179826  0.8364057468873584 1.0000   
         C         C         1.0       0.9205240539639062  0.7111400489616754  0.7971952198152836 1.0000   
         C         C         1.0       0.9502505248462938  0.7311504930922932  0.7814335604231256 1.0000   
         C         C         1.0       0.9762328292845682  0.7498442270073713  0.8038881846483193 1.0000   
         C         C         1.0       0.9734599786393583  0.7503176094174732  0.841859310896254  1.0000   
         H         H         1.0       0.8967598613321714  0.6915168268708461  0.848017491313453  1.0000   
         H         H         1.0       0.8994909439363162  0.6937677415342517  0.7808803755679667 1.0000   
         H         H         1.0       0.0005109913303247282         0.7637014330382105 0.7930995780947404 1.0000   
         H         H         1.0       0.9935227098187916  0.7630306959638672  0.861486406825772  1.0000   
         C         C         1.0       0.991707616467351   0.7906063671366085  0.7317317107071506 1.0000   
         C         C         1.0       0.981629794124969   0.7618661563815518  0.7195531154373979 1.0000   
         C         C         1.0       0.995216878188321   0.7611512567091002  0.6866810550884271 1.0000   
         C         C         1.0       0.016640992781456365          0.7869487560503039 0.6668269294706737 1.0000   
         C         C         1.0       0.02680309408606396           0.8155728633437783 0.6812182970574512 1.0000   
         C         C         1.0       0.01640833275236875           0.8168150070948501 0.7161627233154169 1.0000   
         C         C         1.0       0.9527101494089365  0.7305514780304025  0.7367421442627228 1.0000   
         C         C         1.0       0.9245120336040369  0.7309219655016277  0.717288037060863  1.0000   
         C         C         1.0       0.9138307412506073  0.7177852979692803  0.6823862161849511 1.0000   
         C         C         1.0       0.8985082818058985  0.7252975019462388  0.6583414002325403 1.0000   
         C         C         1.0       0.8908213905787584  0.7457109243610671  0.6700562537517174 1.0000   
         C         C         1.0       0.8984216768407347  0.7565271532292228  0.7069825347751172 1.0000   
         C         C         1.0       0.9145776099810432  0.7483045126019308  0.7297972695811125 1.0000   
         C         C         1.0       0.9851008715373533  0.7084819582601177  0.7359490864392205 1.0000   
         C         C         1.0       0.9923653835854936  0.6896825400997793  0.7221009676218259 1.0000   
         C         C         1.0       0.9692531581367939  0.6632558211762897  0.7024035472172759 1.0000   
         C         C         1.0       0.9371911969147643  0.6535240156608931  0.7061752202422512 1.0000   
         C         C         1.0       0.9298366548715155  0.673078295235289   0.7186603331569477 1.0000   
         C         C         1.0       0.9544012065370804  0.7016525447161767  0.7305568961114013 1.0000   
         C         C         1.0       0.9813076385868617  0.6501733739965493  0.6694596543708855 1.0000   
         C         C         1.0       0.9975283825482709  0.702929080713722   0.5699896728900666 1.0000   
         C         C         1.0       0.019444651827273507          0.714745448352907  0.5996562329481617 1.0000   
         C         C         1.0       0.011746306429947673          0.7008293856195836 0.634521710077779  1.0000   
         C         C         1.0       0.9835800974916505  0.6719805125499589  0.6364312161465056 1.0000   
         C         C         1.0       0.960258476502233   0.661359401828477   0.608431551179221  1.0000   
         C         C         1.0       0.9673389264796134  0.6770007723430165  0.5748305259334344 1.0000   
         C         C         1.0       0.9559529027915153  0.6130230196852229  0.6624157316497651 1.0000   
         C         C         1.0       0.9374723422491783  0.59295788206506    0.6894609808621522 1.0000   
         C         C         1.0       0.9180260126220581  0.5615390483243264  0.6827919910737016 1.0000   
         C         C         1.0       0.9161017716951848  0.549819243180403   0.6478394715055731 1.0000   
         C         C         1.0       0.9344333952423489  0.5701535163254021  0.6190101274294125 1.0000   
         C         C         1.0       0.9546409284821792  0.6009837262737034  0.6275046479948837 1.0000   
         C         C         1.0       0.03968989115658306           0.6627302229595602 0.6578398677161612 1.0000   
         C         C         1.0       0.07030543361704678           0.6729164544067021 0.6736443828401851 1.0000   
         C         C         1.0       0.07129658570445607           0.6677568954042177 0.7106197158879214 1.0000   
         C         C         1.0       0.0447937365191331  0.6541695774298175  0.7319463703646233 1.0000   
         C         C         1.0       0.017238282589046694          0.6486913896127554 0.7168822651358577 1.0000   
         C         C         1.0       0.014391634542005871          0.653576671166077  0.6805525971534949 1.0000   
         H         H         1.0       0.9814979732189197  0.7920101534221445  0.7587024911027981 1.0000   
         H         H         1.0       0.9859386825002342  0.7408251759573745  0.6707827974156115 1.0000   
         H         H         1.0       0.02316394886976858           0.7849430725577068 0.6381361103407162 1.0000   
         H         H         1.0       0.019501193085970314          0.837829671314751  0.7251473643296033 1.0000   
         H         H         1.0       0.9229395710420638  0.7051423140985928  0.6714268382630424 1.0000   
         H         H         1.0       0.8950948935955718  0.7178320820489416  0.6291405650578873 1.0000   
         H         H         1.0       0.889494477138674   0.7693125917384913  0.7173628381159505 1.0000   
         H         H         1.0       0.9217200048040126  0.7591768521189866  0.7572014113286394 1.0000   
         H         H         1.0       0.006448966374025922          0.730021800501271  0.7482395694208862 1.0000   
         H         H         1.0       0.01813956175241538           0.6985188106152808 0.7206662937304029 1.0000   
         H         H         1.0       0.9190180778458469  0.6321224079600256  0.6927937375629603 1.0000   
         H         H         1.0       0.9061711569311025  0.6652249463295842  0.7215940146122233 1.0000   
         H         H         1.0       0.04120615849692055           0.735199023984648  0.5952388919249129 1.0000   
         H         H         1.0       0.02884204745057506           0.7121598565763111 0.6554911787371231 1.0000   
         H         H         1.0       0.9377978742311714  0.6387578514807893  0.6093951916949526 1.0000   
         H         H         1.0       0.9460888042713698  0.6669502666386337  0.5558994727321555 1.0000   
         H         H         1.0       0.94045981752897    0.6019009505440714  0.7170645830501196 1.0000   
         H         H         1.0       0.9034500314041027  0.5467657727537333  0.7061103417638416 1.0000   
         H         H         1.0       0.9318801996319823  0.5630859262076116  0.5897998974702285 1.0000   
         H         H         1.0       0.9706682619556527  0.6152695252728039  0.6059164580561494 1.0000   
         H         H         1.0       0.03672756021631751           0.6620740718177106 0.6275954837459177 1.0000   
         H         H         1.0       0.08938245259469979           0.6823518697357047 0.6531727604933604 1.0000   
         H         H         1.0       0.044604562799627434          0.6474272137885232 0.7613007993031072 1.0000   
         H         H         1.0       0.9958137625352184  0.6395118558964111  0.7365246125973574 1.0000   
         C         C         1.0       0.9308881070182908  0.24241256370050043           0.9559198047419148 1.0000   
         C         C         1.0       0.9384887987233376  0.26889178869712127           0.938970889581611  1.0000   
         C         C         1.0       0.9507818198489716  0.27714611129713457           0.9032382331139794 1.0000   
         C         C         1.0       0.9573280601528139  0.2577967066624053  0.8846840230395226 1.0000   
         C         C         1.0       0.9510962374488077  0.23177420745635474           0.9030969870042249 1.0000   
         C         C         1.0       0.9396057340341882  0.22566134408305333           0.9393750989929249 1.0000   
         H         H         1.0       0.9297848839662678  0.2814752145659792  0.9506109201262656 1.0000   
         H         H         1.0       0.9553817911257256  0.29829598221919756           0.8911000315704597 1.0000   
         H         H         1.0       0.9543448467535895  0.2157050766710023  0.8872830698711016 1.0000   
         H         H         1.0       0.9352232138046611  0.20512021058784005           0.9530610913490197 1.0000   
         C         C         1.0       0.9974932997177852  0.2372963137718665  0.8348344243316529 1.0000   
         C         C         1.0       0.9747119230139167  0.24137205698754655           0.8196844439854787 1.0000   
         C         C         1.0       0.9623475597262803  0.22920173732153207           0.7841343707300991 1.0000   
         C         C         1.0       0.9650669243041196  0.20775094073211456           0.7690073737832241 1.0000   
         C         C         1.0       0.9858732154068098  0.20185332121429841           0.7846486249408804 1.0000   
         C         C         1.0       0.003768376663682238          0.21846390800595875          0.8167120701028067 1.0000   
         C         C         1.0       0.9657792882472344  0.26260704052542705           0.84084091317593   1.0000   
         C         C         1.0       0.9962122902442951  0.2964038796080974  0.8312233056140774 1.0000   
         C         C         1.0       0.003829748012526446          0.3059077357256919 0.7943521235113523 1.0000   
         C         C         1.0       0.0313506576298217  0.3331604404977674  0.7859749366855515 1.0000   
         C         C         1.0       0.05223020799686107           0.35149100779009496          0.8132171955405438 1.0000   
         C         C         1.0       0.045524304710824026          0.34317185920632337          0.8510209017284631 1.0000   
         C         C         1.0       0.01758327278451599           0.3157534597937857 0.8592780017990669 1.0000   
         C         C         1.0       0.9035926380917901  0.22393386954221925           0.8276913002677477 1.0000   
         C         C         1.0       0.8747543601092359  0.21671380474169114           0.8150352570814537 1.0000   
         C         C         1.0       0.8713272595954097  0.23811565953666297           0.7999435007916889 1.0000   
         C         C         1.0       0.8989105621870032  0.2682138009982298  0.7995936609770894 1.0000   
         C         C         1.0       0.928229350296448   0.27528828989350734           0.8109656859868105 1.0000   
         C         C         1.0       0.9313622139512511  0.252730019929447   0.8244075717031394 1.0000   
         C         C         1.0       0.8397833959445195  0.22808019495480444           0.7768398168619198 1.0000   
         C         C         1.0       0.8604928152521084  0.18476438327860453           0.690580485461627  1.0000   
         C         C         1.0       0.8348516257734567  0.1677481934322613  0.7145229809026044 1.0000   
         C         C         1.0       0.8264178686205671  0.18136924821096004           0.7389386384808748 1.0000   
         C         C         1.0       0.8438102112306226  0.21253887513511452           0.7407509589963905 1.0000   
         C         C         1.0       0.8678673065998194  0.23017440737221903           0.7147636803514797 1.0000   
         C         C         1.0       0.8750662585571494  0.21606030310467253           0.6890362903279127 1.0000   
         C         C         1.0       0.8358042660742221  0.25425727856730185           0.7666957759803764 1.0000   
         C         C         1.0       0.8412153959728574  0.27557605061639806           0.795517391724492  1.0000   
         C         C         1.0       0.8436254775581464  0.3013394063091268  0.7871003243575334 1.0000   
         C         C         1.0       0.836430136617331   0.30521114532672955           0.7499770281178771 1.0000   
         C         C         1.0       0.8284052840784865  0.283116990758773   0.7226635819344667 1.0000   
         C         C         1.0       0.8274998149211272  0.2579627482016682  0.7303926338734184 1.0000   
         C         C         1.0       0.7769486859822109  0.18762621365134582           0.7843515024714987 1.0000   
         C         C         1.0       0.750349043818217   0.1688167322353827  0.8035974745248463 1.0000   
         C         C         1.0       0.7529787683241627  0.16633709266000207           0.8414720925070702 1.0000   
         C         C         1.0       0.7822376520372398  0.1854535920967527  0.8600984746571153 1.0000   
         C         C         1.0       0.8090446681359368  0.2073825653816543  0.8405686644325031 1.0000   
         C         C         1.0       0.8068537128484514  0.20696368430965018           0.8021165736577881 1.0000   
         H         H         1.0       0.010483072254858339          0.2491624840752396 0.859173434336093  1.0000   
         H         H         1.0       0.9456798043604445  0.2333657729867437  0.7711297710608397 1.0000   
         H         H         1.0       0.9521211770549349  0.19588545290072584           0.7426985035059012 1.0000   
         H         H         1.0       0.02091114859109844           0.21405789500689046          0.8276290708341815 1.0000   
         H         H         1.0       0.9888952011212949  0.2906803618937143  0.7731465422948901 1.0000   
         H         H         1.0       0.035033059343293926          0.3380206882789461 0.7560286106216887 1.0000   
         H         H         1.0       0.06039374336009873           0.35521191470877234          0.873893576925532  1.0000   
         H         H         1.0       0.016254804909233922          0.30816157338308886          0.8866436963286517 1.0000   
         H         H         1.0       0.9054255995056815  0.20676527233593303           0.8371417898234236 1.0000   
         H         H         1.0       0.8536745513732099  0.1931309371646273  0.8128164702936228 1.0000   
         H         H         1.0       0.9015640159201979  0.2889412200933478  0.788188614781593  1.0000   
         H         H         1.0       0.9473294361981941  0.2991760508903822  0.8077433627794565 1.0000   
         H         H         1.0       0.8201385428236448  0.1428365029568845  0.7143061043739699 1.0000   
         H         H         1.0       0.8102628585208396  0.1675218554003369  0.7625512606972679 1.0000   
         H         H         1.0       0.8807570715233969  0.25462948580436995           0.7168943240002857 1.0000   
         H         H         1.0       0.8931881429507272  0.2305463907332151  0.6689682902394827 1.0000   
         H         H         1.0       0.8494888622667386  0.27315396157019917           0.8226788258625922 1.0000   
         H         H         1.0       0.8485537803670827  0.3174397216533778  0.8121509783287717 1.0000   
         H         H         1.0       0.8189717018890498  0.2842272844734178  0.6944531515115143 1.0000   
         H         H         1.0       0.819621700443175   0.24061460729491677           0.7081555542237362 1.0000   
         H         H         1.0       0.7722595070142522  0.18759538413532878           0.754575049274481  1.0000   
         H         H         1.0       0.7260770787250146  0.15349118043089743           0.7889383417525768 1.0000   
         H         H         1.0       0.7828421737542319  0.1810640969474898  0.8904613118484411 1.0000   
         H         H         1.0       0.8316527294870542  0.2237049440186519  0.8537940507012922 1.0000   
         C         C         1.0       0.016225113652238887          0.12789191665789507          0.06266807617426329          1.0000   
         C         C         1.0       0.00619959337926379           0.13805908678727236          0.034872728905678274         1.0000   
         C         C         1.0       0.00892524707043596           0.1653284945015602 0.040643034329233885         1.0000   
         C         C         1.0       0.01762065863079476           0.1796249806409654 0.07496681696285235          1.0000   
         C         C         1.0       0.0302445833953624  0.16913173613268537           0.10151629251084482          1.0000   
         C         C         1.0       0.032002900515405885          0.1453220221877741 0.09393691587868247          1.0000   
         H         H         1.0       0.9931049714571943  0.12466804624557176           0.010538873211889399         1.0000   
         H         H         1.0       0.004190410298937186          0.1758410225755184 0.019013299879163004         1.0000   
         H         H         1.0       0.03609997917706953           0.17197500881136873          0.606774304180864  1.0000   
         H         H         1.0       0.036156375026752174          0.12927439548559444          0.5892530655680415 1.0000   
         C         C         1.0       0.97637843202115    0.16124302035006452           0.6426346534752742 1.0000   
         C         C         1.0       0.9942849429157867  0.1888253529816634  0.6225881784272265 1.0000   
         C         C         1.0       0.009443848708318825          0.21500453729462518          0.6445258491056133 1.0000   
         C         C         1.0       0.01652898722107654           0.2149596008588124 0.6818783658292269 1.0000   
         C         C         1.0       0.0022821676232425148         0.18697175245407724          0.6995760802897038 1.0000   
         C         C         1.0       0.9800018588638579  0.15986503257691084           0.6794979960995703 1.0000   
         C         C         1.0       0.009387770140249385          0.2031861239363589 0.08632166961941579          1.0000   
         C         C         1.0       0.9784056865193315  0.20204874560980615           0.07193775594130103          1.0000   
         C         C         1.0       0.9777937783151626  0.2273765429660305  0.07518792765094484          1.0000   
         C         C         1.0       0.9543400635084082  0.2283872873486799  0.057811022156608605         1.0000   
         C         C         1.0       0.9326256511364638  0.20586745587954    0.03438712319280146          1.0000   
         C         C         1.0       0.9339144164702526  0.18183702094667797           0.02687737514858579          1.0000   
         C         C         1.0       0.9559682210433861  0.17968995616186487           0.046340424028743055         1.0000   
         C         C         1.0       0.07012365005922061           0.25152734730996007          0.08865514089417736          1.0000   
         C         C         1.0       0.08649632431906862           0.28292966921752516          0.08624898580132179          1.0000   
         C         C         1.0       0.08170353190438062           0.2955818001318889 0.05586347494858468          1.0000   
         C         C         1.0       0.06195748710769644           0.2758756174332948 0.02765791058245637          1.0000   
         C         C         1.0       0.04081969886779513           0.24462725529596355          0.03494625726185996          1.0000   
         C         C         1.0       0.04228171699554184           0.23297818769913214          0.06890310055564997          1.0000   
         C         C         1.0       0.09160985052784953           0.3289787755709852 0.05494746567418529          1.0000   
         C         C         1.0       0.001784012592521922          0.31299869284669185          0.09645905351413298          1.0000   
         C         C         1.0       0.02412838107248394           0.32580127165454137          0.5652080883946953 1.0000   
         C         C         1.0       0.04582143098000091           0.31975206762649416          0.5526112361969544 1.0000   
         C         C         1.0       0.058439489438975256          0.32256653730046353          0.07253405407282543          1.0000   
         C         C         1.0       0.03587103728408558           0.31929906290688664          0.047110189100055155         1.0000   
         C         C         1.0       0.00716910738504728           0.3140438397572882 0.058177884498376464         1.0000   
         C         C         1.0       0.10451737453068644           0.34552100858708434          0.014205459241104945         1.0000   
         C         C         1.0       0.11912076482805056           0.33642301111421374          0.9906160764549171 1.0000   
         C         C         1.0       0.12623036361545314           0.3460694169589042 0.9535055350021087 1.0000   
         C         C         1.0       0.12082544047767207           0.3683677951817486 0.9409719646754718 1.0000   
         C         C         1.0       0.11059867018396541           0.3804058706935183 0.9664280224457776 1.0000   
         C         C         1.0       0.10184924744784563           0.3682801535709996 0.002772755795975579         1.0000   
         C         C         1.0       0.11956078957176186           0.37969271518128017          0.09574033967124373          1.0000   
         C         C         1.0       0.14190262777846    0.3843758105290768  0.5245202680794893 1.0000   
         C         C         1.0       0.166220853093403   0.38037300971529125           0.5313170207426391 1.0000   
         C         C         1.0       0.16447899222935056           0.37192148950939014          0.12612494437541488          1.0000   
         C         C         1.0       0.1450623815671117  0.35367482352479096           0.0959126272319275 1.0000   
         C         C         1.0       0.11998242263204673           0.3547356036648037 0.08270688218112388          1.0000   
         H         H         1.0       0.9587735475314761  0.14195977662476697           0.624547130302822  1.0000   
         H         H         1.0       0.02085719746756154           0.23622476862430572          0.632912039891976  1.0000   
         H         H         1.0       0.03227188678551629           0.2342877116790512 0.6978050470441417 1.0000   
         H         H         1.0       0.9711751171395053  0.13841778857961043           0.6913300659746194 1.0000   
         H         H         1.0       0.9951083887577689  0.2463787648943015  0.09181618056106822          1.0000   
         H         H         1.0       0.9534201707784349  0.2484825294107745  0.06104279419664138          1.0000   
         H         H         1.0       0.9171439192592828  0.16266617442644649           0.007705422864767497         1.0000   
         H         H         1.0       0.9535295805668556  0.1572420850045861  0.046157904641919156         1.0000   
         H         H         1.0       0.05965821386903558           0.2427912645406577 0.598957117305277  1.0000   
         H         H         1.0       0.08804495614410235           0.2879439037477508 0.5682420568879937 1.0000   
         H         H         1.0       0.054748119730568146          0.28412855869419135          0.0038989580908901367        1.0000   
         H         H         1.0       0.02073867615491931           0.22888638347388585          0.014751482390073178         1.0000   
         H         H         1.0       0.02592501223339938           0.33183306353062975          0.5948891786652063 1.0000   
         H         H         1.0       0.06381954334515783           0.32153759194372916          0.5721333652253959 1.0000   
         H         H         1.0       0.039782421947014646          0.32004661739711954          0.0171086737201529 1.0000   
         H         H         1.0       0.9887556648454042  0.30963378780321504           0.039548294658925176         1.0000   
         H         H         1.0       0.12308405317123028           0.3201607198424882 0.9993355812497505 1.0000   
         H         H         1.0       0.1340021976274648  0.3359841533045799  0.9348577058266379 1.0000   
         H         H         1.0       0.1098411369697967  0.3992320346325466  0.9608022579406321 1.0000   
         H         H         1.0       0.09468471597652761           0.37838943349446486          0.022393230340144843         1.0000   
         H         H         1.0       0.10083547060230269           0.38204487915022006          0.08610862441700129          1.0000   
         H         H         1.0       0.1476914516918949  0.4078605405313523  0.5256753587226772 1.0000   
         H         H         1.0       0.18225978567441142           0.3692566080540176 0.13825559135042687          1.0000   
         H         H         1.0       0.14919040150630303           0.3379083029293564 0.08408230474309653          1.0000   
         C         C         1.0       0.40693049659866415           0.6084934069214011 0.8575179560907712 1.0000   
         C         C         1.0       0.3928555174388453  0.5803990665298255  0.8403443180007276 1.0000   
         C         C         1.0       0.3634201894488506  0.5571953772063535  0.8498966299785392 1.0000   
         C         C         1.0       0.3484487057060967  0.5600446969532279  0.8812188549317551 1.0000   
         C         C         1.0       0.36166699891144494           0.5889410503707839 0.8965849091882243 1.0000   
         C         C         1.0       0.39067714082409755           0.6118395480474925 0.8858646315682673 1.0000   
         H         H         1.0       0.4044506860828497  0.577093547495176   0.8172634177057789 1.0000   
         H         H         1.0       0.3523658199609334  0.5361040752932894  0.8335537878361113 1.0000   
         H         H         1.0       0.35210032730132773           0.5936704134344212 0.9218971660758836 1.0000   
         H         H         1.0       0.40353666433912    0.6332789530101233  0.9002817535825196 1.0000   
         C         C         1.0       0.3405782763908066  0.5363390446233989  0.9591072229864361 1.0000   
         C         C         1.0       0.31564827788723243           0.533480807254105  0.9405446566155471 1.0000   
         C         C         1.0       0.28915994395847183           0.5285320096058885 0.9621882404639936 1.0000   
         C         C         1.0       0.29154631185810087           0.5297862672344761 0.0009635383306410006        1.0000   
         C         C         1.0       0.3171105494959838  0.5332815584452563  0.0188644717066615 1.0000   
         C         C         1.0       0.342189694066008   0.5360703857784535  0.9974968416304274 1.0000   
         C         C         1.0       0.315753837443222   0.531799935983377   0.8971194860725639 1.0000   
         C         C         1.0       0.308405618655852   0.4982810072592496  0.8896992888356178 1.0000   
         C         C         1.0       0.27505885837070393           0.4735122879048813 0.889054781048653  1.0000   
         C         C         1.0       0.26777596191533115           0.44435354423279244          0.8822464515813192 1.0000   
         C         C         1.0       0.29098152015264667           0.4385593209328907 0.8804263137854638 1.0000   
         C         C         1.0       0.3224854041287687  0.4620053455620337  0.8817146694478054 1.0000   
         C         C         1.0       0.3313444994368359  0.491047232179312   0.8895960699112723 1.0000   
         C         C         1.0       0.2733914404687906  0.544838137008337   0.8775351463793861 1.0000   
         C         C         1.0       0.24843831508539896           0.5379811800356602 0.8532448600032292 1.0000   
         C         C         1.0       0.24288576775995374           0.5241376615207319 0.8180574060242077 1.0000   
         C         C         1.0       0.264746401552034   0.5177819692265995  0.8068814585139124 1.0000   
         C         C         1.0       0.2875095601049156  0.5223713839313974  0.8317985715204154 1.0000   
         C         C         1.0       0.29160304941187026           0.5337132915367481 0.8690757761317394 1.0000   
         C         C         1.0       0.21049383762895468           0.5087152818773224 0.7936795209421115 1.0000   
         C         C         1.0       0.167274663792041   0.4270709010229971  0.8602468681585816 1.0000   
         C         C         1.0       0.1654721356978587  0.45043691095554805           0.8730578100071598 1.0000   
         C         C         1.0       0.17468388493918732           0.4744158557798676 0.8503364626246758 1.0000   
         C         C         1.0       0.18967893540187566           0.4776752346877765 0.8160091031599316 1.0000   
         C         C         1.0       0.18886330120998313           0.4528542471127719 0.8034581039242452 1.0000   
         C         C         1.0       0.1776817067057685  0.42751122039454476           0.8245846549892009 1.0000   
         C         C         1.0       0.21504152371177876           0.5074939358967558 0.7483187174195296 1.0000   
         C         C         1.0       0.23880107011911522           0.5346020727870721 0.731366284802811  1.0000   
         C         C         1.0       0.23954601620776916           0.5385755386495539 0.6931046760498332 1.0000   
         C         C         1.0       0.21781188040476296           0.5125857276305383 0.6716755194020217 1.0000   
         C         C         1.0       0.1943313000628592  0.4860958462316737  0.6876041875955861 1.0000   
         C         C         1.0       0.19158973860697723           0.48337966434017665          0.7263242808819157 1.0000   
         C         C         1.0       0.15867271545336376           0.5086358806707136 0.7841317677686273 1.0000   
         C         C         1.0       0.1438114406695628  0.522662162632935   0.776798352317437  1.0000   
         C         C         1.0       0.16158838038540596           0.5532215527525818 0.7767322635797905 1.0000   
         C         C         1.0       0.1943184147867876  0.5701758825525296  0.7848618217594289 1.0000   
         C         C         1.0       0.2085488358224623  0.5558908858461962  0.7949066944305251 1.0000   
         C         C         1.0       0.19163985409591677           0.524621808371792  0.7940657873545001 1.0000   
         H         H         1.0       0.3621944651880209  0.5396200144496283  0.945627081263798  1.0000   
         H         H         1.0       0.2670451656253543  0.5255575201294848  0.9515895917594008 1.0000   
         H         H         1.0       0.27175604631690076           0.5290316582779873 0.01423655164701998          1.0000   
         H         H         1.0       0.36346943845956725           0.5403959033782713 0.010769830072578479         1.0000   
         H         H         1.0       0.2579904164712176  0.4781695664888241  0.8953340153730653 1.0000   
         H         H         1.0       0.24252526478678227           0.4265418167121192 0.8782740126235228 1.0000   
         H         H         1.0       0.33911971504805344           0.4573929863171444 0.8743665601529607 1.0000   
         H         H         1.0       0.35773276490166006           0.509881490384787  0.8894177502084807 1.0000   
         H         H         1.0       0.27525880323194757           0.5565733327313299 0.9024096233691301 1.0000   
         H         H         1.0       0.23190877253673814           0.5437896077184236 0.8625877851524602 1.0000   
         H         H         1.0       0.265815606795662   0.5091762038444108  0.7792056248400884 1.0000   
         H         H         1.0       0.3002854766854776  0.512411738156756   0.8246304862772773 1.0000   
         H         H         1.0       0.1517949518115244  0.4488720503273137  0.8975715310023763 1.0000   
         H         H         1.0       0.17025734962313308           0.4910337036307269 0.8620528112696633 1.0000   
         H         H         1.0       0.1976604200065353  0.45328171196463984           0.7772591811543602 1.0000   
         H         H         1.0       0.17831009075695411           0.4077901980904405 0.8172056905622542 1.0000   
         H         H         1.0       0.25686263736382764           0.5530114393061887 0.7485169972275183 1.0000   
         H         H         1.0       0.25516366016050507           0.5610243359892036 0.6803555866313761 1.0000   
         H         H         1.0       0.17626714830605247           0.46923556198964306          0.6694607346650131 1.0000   
         H         H         1.0       0.1698159791732253  0.46297136232430913           0.7385527415401312 1.0000   
         H         H         1.0       0.14366633031936688           0.4839637258739073 0.7813735902246696 1.0000   
         H         H         1.0       0.11962580709124682           0.5100871769821582 0.7712632552085237 1.0000   
         H         H         1.0       0.2086858904575057  0.5947146122194081  0.7790594933938755 1.0000   
         H         H         1.0       0.23439705143894796           0.5703167170798783 0.7951050441720205 1.0000   
         C         C         1.0       0.26253676256926467           0.389213999499185  0.8065077004459789 1.0000   
         C         C         1.0       0.23879012677043604           0.3647236997607234 0.7865875706075827 1.0000   
         C         C         1.0       0.24210998991407381           0.36508364704859697          0.74824127962502   1.0000   
         C         C         1.0       0.2705542800172688  0.389318183245801   0.7307535492329065 1.0000   
         C         C         1.0       0.2940786741848466  0.41419340310249714           0.751495635456359  1.0000   
         C         C         1.0       0.2906795542662168  0.4141908393330991  0.7897101008778489 1.0000   
         H         H         1.0       0.2160218721036713  0.3448727675756021  0.7966971255472012 1.0000   
         H         H         1.0       0.22179147708217456           0.34678127787651863          0.7315036202928124 1.0000   
         H         H         1.0       0.31716862620119385           0.43329481032671097          0.7426261669037018 1.0000   
         H         H         1.0       0.30708185483143263           0.4328786742947738 0.8078423744726848 1.0000   
         C         C         1.0       0.3058445805137473  0.44591539653778134           0.6715430438841278 1.0000   
         C         C         1.0       0.3056816773274687  0.4194247635600016  0.6695414012287499 1.0000   
         C         C         1.0       0.32598409209048324           0.4196073332322976 0.6435693557635627 1.0000   
         C         C         1.0       0.3530382097917864  0.5040506219517578  0.08184844717318396          1.0000   
         C         C         1.0       0.35428776300330006           0.5280665369491494 0.09979245446185514          1.0000   
         C         C         1.0       0.31941710911329363           0.4673186405485551 0.6433367442563921 1.0000   
         C         C         1.0       0.27529518520651974           0.38738069461139807          0.6876642810510106 1.0000   
         C         C         1.0       0.24838565174819513           0.3841046051971782 0.6596750417529268 1.0000   
         C         C         1.0       0.2456908078131482  0.3770089290987203  0.6213086908153413 1.0000   
         C         C         1.0       0.22980979965533635           0.38430159373410916          0.5980820202323313 1.0000   
         C         C         1.0       0.21558116352476395           0.3986080602804976 0.6099465229730094 1.0000   
         C         C         1.0       0.21419361137922346           0.40188913241076885          0.6477809393765793 1.0000   
         C         C         1.0       0.2289746522785544  0.392968135966868   0.672634320693755  1.0000   
         C         C         1.0       0.30621324252072685           0.3631515322400869 0.6962494347714667 1.0000   
         C         C         1.0       0.31382558019219303           0.34343884164691735          0.6852840615488264 1.0000   
         C         C         1.0       0.293059882913794   0.3185584345628558  0.6646704969956296 1.0000   
         C         C         1.0       0.26184067263775784           0.31046448546546235          0.658893562726158  1.0000   
         C         C         1.0       0.25361519826956214           0.3300298391386407 0.6697208661304236 1.0000   
         C         C         1.0       0.27732474400326307           0.35876493103335266          0.6848507048610045 1.0000   
         C         C         1.0       0.3050140453696068  0.3004523404452361  0.6454448662819595 1.0000   
         C         C         1.0       0.3362836473374402  0.39233457892095797           0.9905216959930152 1.0000   
         C         C         1.0       0.36640838700558515           0.40467495464344766          0.006493881820549774         1.0000   
         C         C         1.0       0.3696754198298303  0.3915350433000319  0.038179907343181885         1.0000   
         C         C         1.0       0.34285697849480673           0.36537345580012376          0.05370584298266712          1.0000   
         C         C         1.0       0.3135189400742123  0.35254889755757585           0.03618433419011979          1.0000   
         C         C         1.0       0.3103428467714793  0.36645757238682647           0.005591444520687494         1.0000   
         C         C         1.0       0.2808914750256509  0.26515676287647616           0.6369623151580529 1.0000   
         C         C         1.0       0.25584075102979686           0.24701777898752586          0.6605092495204313 1.0000   
         C         C         1.0       0.2344431777453944  0.21610034140591805           0.6563340127719131 1.0000   
         C         C         1.0       0.27888441066758474           0.25530752126545214          0.11017511529834167          1.0000   
         C         C         1.0       0.2987110981416764  0.2675243379096847  0.08003298940305759          1.0000   
         C         C         1.0       0.3191784562324938  0.2988313469030765  0.0753226197684278 1.0000   
         C         C         1.0       0.35390386306676896           0.2975935804074478 0.6526323655786402 1.0000   
         C         C         1.0       0.3784158302415714  0.30036138554958114           0.6709284941388872 1.0000   
         C         C         1.0       0.378347855921534   0.29918793706809615           0.7092144220763721 1.0000   
         C         C         1.0       0.35482761929842715           0.2985920465666148 0.7281341628119296 1.0000   
         C         C         1.0       0.33176265325813337           0.29916519961038085          0.7109358994587457 1.0000   
         C         C         1.0       0.3302040073709568  0.29880579496939896           0.6715378031829183 1.0000   
         H         H         1.0       0.2899380064994586  0.44595337174409555           0.6937881505741718 1.0000   
         H         H         1.0       0.33006992050977113           0.40182005302115653          0.6417461028686184 1.0000   
         H         H         1.0       0.3495216065484889  0.49966512228004034           0.051862875656482954         1.0000   
         H         H         1.0       0.31920651985827725           0.48689377650622867          0.6421531656658898 1.0000   
         H         H         1.0       0.26234540953125635           0.3719128346891403 0.610797065068685  1.0000   
         H         H         1.0       0.2376800026647552  0.43155328801413234           0.11082961885929521          1.0000   
         H         H         1.0       0.20096534494026225           0.4105420640278648 0.6564855514281793 1.0000   
         H         H         1.0       0.2296005307217637  0.3974993599878055  0.7013811866000192 1.0000   
         H         H         1.0       0.32511264297179904           0.38201318497902664          0.7116388676841822 1.0000   
         H         H         1.0       0.3387597284179404  0.35221355930926407           0.6903491847622858 1.0000   
         H         H         1.0       0.24217607804532015           0.2904714903618058 0.6421688353344066 1.0000   
         H         H         1.0       0.23026686970453042           0.32504849925773993          0.667378939016615  1.0000   
         H         H         1.0       0.3877960502126418  0.42504686948765297           0.9965525249073488 1.0000   
         H         H         1.0       0.3634136882992721  0.3544101250705722  0.6291019154265115 1.0000   
         H         H         1.0       0.2902356952210532  0.3326104868451961  0.04515827412967699          1.0000   
         H         H         1.0       0.2847084831486667  0.3560489762813078  0.9927960750664201 1.0000   
         H         H         1.0       0.2538046588270089  0.2574825022949218  0.6847995971487549 1.0000   
         H         H         1.0       0.21978770547498153           0.2034077683413665 0.6795067211085197 1.0000   
         H         H         1.0       0.29641545134469854           0.2521919078216426 0.05736405263204514          1.0000   
         H         H         1.0       0.33372303715108914           0.30750579268207545          0.05059623086578502          1.0000   
         H         H         1.0       0.3952802548640942  0.35807537440876613           0.05116836195075236          1.0000   
         H         H         1.0       0.39929496116444796           0.30472447926809126          0.6560789387389692 1.0000   
         H         H         1.0       0.35559769175751665           0.2977309124643987 0.7591435958642828 1.0000   
         H         H         1.0       0.31276939763888345           0.2978249375431827 0.7266355145747596 1.0000   
         C         C         1.0       0.38644629743921827           0.8803871711678517 0.8460110906089746 1.0000   
         C         C         1.0       0.380581717379857   0.895856345936639   0.8200160009468714 1.0000   
         C         C         1.0       0.36965850012703844           0.9130850715547307 0.8331645708238347 1.0000   
         C         C         1.0       0.36463587636961176           0.9142044767429859 0.8709420900027682 1.0000   
         C         C         1.0       0.3788055773567695  0.9052493897107934  0.8962735341150758 1.0000   
         C         C         1.0       0.3876562864035362  0.8870855414442567  0.884533337549897  1.0000   
         H         H         1.0       0.38532943030074984           0.8962015605652186 0.7886564892261944 1.0000   
         H         H         1.0       0.3651519464403669  0.9250410683099999  0.8132629480911371 1.0000   
         H         H         1.0       0.3779427116831417  0.9098729413467728  0.9251730658516458 1.0000   
         H         H         1.0       0.39156914983123514           0.8747413167848554 0.9052627658106742 1.0000   
         C         C         1.0       0.3058570472318025  0.8698937290913847  0.9136575798523627 1.0000   
         C         C         1.0       0.3173008027971481  0.900656502310028   0.9160701320180866 1.0000   
         C         C         1.0       0.31307641288978044           0.9103814804063509 0.9504991056292651 1.0000   
         C         C         1.0       0.30467565748691344           0.892956240329853  0.9817168628586749 1.0000   
         C         C         1.0       0.2952580144869491  0.8625226353776817  0.9788503090570858 1.0000   
         C         C         1.0       0.29695324921553157           0.8514798075762464 0.9444275847186708 1.0000   
         C         C         1.0       0.3402862491756242  0.9225719923186039  0.8836751540804699 1.0000   
         C         C         1.0       0.31513268189088545           0.9175020878702954 0.8513787444577269 1.0000   
         C         C         1.0       0.30394716969494556           0.9359902089677873 0.8553721847828673 1.0000   
         C         C         1.0       0.2868755722479904  0.9381877307445224  0.8269666225196667 1.0000   
         C         C         1.0       0.2778672895393501  0.9203680650404676  0.7957631588287999 1.0000   
         C         C         1.0       0.2829120937881218  0.8973198650403484  0.7961904710352478 1.0000   
         C         C         1.0       0.3002023909966573  0.8947519675692722  0.8242245550473488 1.0000   
         C         C         1.0       0.3829995816722695  0.9667021169597898  0.9282970137691987 1.0000   
         C         C         1.0       0.405785128896002   0.9962157513091059  0.935398703384796  1.0000   
         C         C         1.0       0.4182615088150665  0.018462180829225794         0.9076622109335718 1.0000   
         C         C         1.0       0.40461238954379036           0.0097363284018126 0.8728098657861157 1.0000   
         C         C         1.0       0.3800927555803085  0.9804682793415024  0.8655695611765957 1.0000   
         C         C         1.0       0.3681080396392377  0.9576648232871035  0.8937211890552318 1.0000   
         C         C         1.0       0.4469167694687191  0.05399543790033223           0.9133735194863142 1.0000   
         C         C         1.0       0.4215610644253803  0.1135036587878564  0.868659376994146  1.0000   
         C         C         1.0       0.3984106896092653  0.08697899743394721           0.8860564847494509 1.0000   
         C         C         1.0       0.40539397793642135           0.06622155117213935          0.8973885754940238 1.0000   
         C         C         1.0       0.4367170034117688  0.07342605517128598           0.8916594653456096 1.0000   
         C         C         1.0       0.45855749418733527           0.09984459565158299          0.8717333655541242 1.0000   
         C         C         1.0       0.4510634826364824  0.11954038689085267           0.8605898256127656 1.0000   
         C         C         1.0       0.47943651297296214           0.0592381406077207 0.8981279170327441 1.0000   
         C         C         1.0       0.48296974650845437           0.03875672002642183          0.8790250180657756 1.0000   
         C         C         1.0       0.511252750739745   0.04279187944191598           0.8738389367001125 1.0000   
         C         C         1.0       0.5395144231855801  0.06684102504087752           0.8884820523639748 1.0000   
         C         C         1.0       0.5382440138593614  0.08971632923954176           0.9056866119650969 1.0000   
         C         C         1.0       0.5082147692912563  0.08538259095705736           0.9113281493492652 1.0000   
         C         C         1.0       0.45545029858646924           0.08845524561472184          0.9741333617744029 1.0000   
         C         C         1.0       0.47035891645811617           0.10160722147457912          0.00850098455713777          1.0000   
         C         C         1.0       0.48577567422682566           0.09150822344556597          0.026626442062827715         1.0000   
         C         C         1.0       0.48323988616101177           0.06562133990668739          0.013386536923637893         1.0000   
         C         C         1.0       0.4663908787657963  0.051467550750232016         0.9801968559083117 1.0000   
         C         C         1.0       0.45333187726014673           0.06315386667704992          0.9588344560817594 1.0000   
         H         H         1.0       0.3093940046288541  0.8615575879991341  0.8861978676693557 1.0000   
         H         H         1.0       0.32144148801954037           0.9349464049732645 0.9513600758067791 1.0000   
         H         H         1.0       0.30729915863471113           0.9018502154001089 0.009873676366883632         1.0000   
         H         H         1.0       0.2909328215302844  0.8289613535416115  0.9406579202933811 1.0000   
         H         H         1.0       0.3102657357987017  0.9493594979235401  0.8807396114412961 1.0000   
         H         H         1.0       0.28102183151421406           0.9535613023407455 0.8297508517961344 1.0000   
         H         H         1.0       0.27397994928432207           0.8808564489446461 0.7716745892795135 1.0000   
         H         H         1.0       0.30861597668449775           0.8808416735816684 0.8215139677562393 1.0000   
         H         H         1.0       0.3758464054569895  0.9509797769343813  0.9517309442230341 1.0000   
         H         H         1.0       0.41573433844366703           0.0004537982641308336        0.9618834227959862 1.0000   
         H         H         1.0       0.41221462242410734           0.02512378005109106          0.8495793888975606 1.0000   
         H         H         1.0       0.3693339584912197  0.9738347139511765  0.8376892177403122 1.0000   
         H         H         1.0       0.3750870454814372  0.08118495773679957           0.8984426314434049 1.0000   
         H         H         1.0       0.3854085262181525  0.0470710990554879  0.9104002821892307 1.0000   
         H         H         1.0       0.48231053582841404           0.10271184420271995          0.8640096583813945 1.0000   
         H         H         1.0       0.46809263369433324           0.1407084028518435 0.8491935850073203 1.0000   
         H         H         1.0       0.4636536045831764  0.020024257301788584         0.8628307546408003 1.0000   
         H         H         1.0       0.5093639366498581  0.023669589072622843         0.8590242914883754 1.0000   
         H         H         1.0       0.559588012238767   0.11026188756934019           0.9190843308142499 1.0000   
         H         H         1.0       0.5075499622380126  0.10332893539740362           0.9273363305837575 1.0000   
         H         H         1.0       0.4466389195190816  0.09832117609227531           0.957518315465574  1.0000   
         H         H         1.0       0.47149046763818864           0.12031935393949933          0.0206514354389995 1.0000   
         H         H         1.0       0.49592848970704134           0.057009389297588475         0.028945666301066764         1.0000   
         H         H         1.0       0.46535021732897874           0.03028854733724473          0.9731032392266847 1.0000   
         C         C         1.0       0.22292999265507457           0.9023200406532241 0.7036743719993735 1.0000   
         C         C         1.0       0.2320598721808524  0.928146034080234   0.6826562239444818 1.0000   
         C         C         1.0       0.2327842145039488  0.9264538713202194  0.6438499872386755 1.0000   
         C         C         1.0       0.2226306458384098  0.8984395823698879  0.6268719871548025 1.0000   
         C         C         1.0       0.20710486181468193           0.8726307020022868 0.6499345359881465 1.0000   
         C         C         1.0       0.2104319917298489  0.8742941468919703  0.6870469541360555 1.0000   
         H         H         1.0       0.23963288766071458           0.9497116565164565 0.6936923771960224 1.0000   
         H         H         1.0       0.2407025899932316  0.9458126625534861  0.6279606430799347 1.0000   
         H         H         1.0       0.19604013616983612           0.8511000796752564 0.6370399448194479 1.0000   
         H         H         1.0       0.20494207800851388           0.8561365392112651 0.7033777604826865 1.0000   
         C         C         1.0       0.24937442435547588           0.869030618055844  0.5821255497593091 1.0000   
         C         C         1.0       0.22514796880677748           0.86953327087586   0.5660923214197671 1.0000   
         C         C         1.0       0.22696794047063856           0.8717725682656176 0.05023817773610495          1.0000   
         C         C         1.0       0.2307562369591844  0.8491771680572674  0.040419899724898345         1.0000   
         C         C         1.0       0.2574090659448193  0.851110464433068   0.05368674216156433          1.0000   
         C         C         1.0       0.2774957293447173  0.8730839837670831  0.07902770940949355          1.0000   
         C         C         1.0       0.22196417727734472           0.8952888308536097 0.5816388764387175 1.0000   
         C         C         1.0       0.2504371170849538  0.9227285770431874  0.5608220453369582 1.0000   
         C         C         1.0       0.2477754502499531  0.9418310846654941  0.02062396844049541          1.0000   
         C         C         1.0       0.26491786944467344           0.9600137347118101 0.9911346326383252 1.0000   
         C         C         1.0       0.30334056736717147           0.9631231946226123 0.5137410864322149 1.0000   
         C         C         1.0       0.3074740510047274  0.9628231057237042  0.5522741171662173 1.0000   
         C         C         1.0       0.28186602607800804           0.9419178784618786 0.5755879491294089 1.0000   
         C         C         1.0       0.16030485854741122           0.8608862470716249 0.5746425074201915 1.0000   
         C         C         1.0       0.13476258946612887           0.8527294117921765 0.553333272120976  1.0000   
         C         C         1.0       0.13314976419838442           0.8731067822560392 0.5331406954546731 1.0000   
         C         C         1.0       0.15744389179585547           0.9037593357821601 0.540528216561884  1.0000   
         C         C         1.0       0.1850724945013375  0.91217597110832    0.5608428975017049 1.0000   
         C         C         1.0       0.18800097409472213           0.889747094624225  0.5739509282686743 1.0000   
         C         C         1.0       0.10830914289819552           0.8620686656544293 0.4981416303576941 1.0000   
         C         C         1.0       0.16676121060929416           0.8749162350953281 0.9343525625956448 1.0000   
         C         C         1.0       0.14636228168502619           0.8494554940532499 0.9572292863909935 1.0000   
         C         C         1.0       0.13296766149931677           0.8535662927559047 0.9874716761143173 1.0000   
         C         C         1.0       0.13623014238640496           0.8807970834043188 0.9955875308879585 1.0000   
         C         C         1.0       0.15738443940091335           0.9048931988978672 0.9740717614365766 1.0000   
         C         C         1.0       0.1705499818937556  0.9024850478885904  0.9424757855464231 1.0000   
         C         C         1.0       0.1078003619508221  0.9076071837081882  0.027048050698249115         1.0000   
         C         C         1.0       0.09020132412107884           0.8974140858875731 0.5194335935017369 1.0000   
         C         C         1.0       0.09186499706773454           0.9384309300979767 0.05525452021624444          1.0000   
         C         C         1.0       0.09180415360635008           0.9493063337668064 0.02048933956064314          1.0000   
         C         C         1.0       0.0949751235591616  0.9355651702131533  0.989528093289719  1.0000   
         C         C         1.0       0.10099268982647236           0.9139566964595969 0.9926738141339992 1.0000   
         C         C         1.0       0.06218016843571683           0.8066234725834074 0.4768108420424111 1.0000   
         C         C         1.0       0.03898800884008202           0.7764726655804693 0.48675414407079376          1.0000   
         C         C         1.0       0.023585004559276923          0.770654906054198  0.5195661657575739 1.0000   
         C         C         1.0       0.03620115838065807           0.7930908026278953 0.5474887368880491 1.0000   
         C         C         1.0       0.060938217546720574          0.8216619979905609 0.5384899480249452 1.0000   
         C         C         1.0       0.07626837020335553           0.8287286430681534 0.5040685368341745 1.0000   
         H         H         1.0       0.26231637076681824           0.884140250765136  0.6059757578810254 1.0000   
         H         H         1.0       0.20825237263755375           0.8722405793496958 0.03676986269094895          1.0000   
         H         H         1.0       0.21443923021015435           0.8333553580091073 0.019289238549569765         1.0000   
         H         H         1.0       0.30145048913935213           0.8783046992495606 0.08699985861142578          1.0000   
         H         H         1.0       0.22274029162818568           0.9244103677556563 0.015851084278037497         1.0000   
         H         H         1.0       0.25484170010446816           0.9580226305410643 0.9629602774082802 1.0000   
         H         H         1.0       0.3314029060667336  0.9761518328514318  0.5640688258570624 1.0000   
         H         H         1.0       0.2862562845661679  0.9407482192374718  0.6048153909651764 1.0000   
         H         H         1.0       0.15948047860630507           0.8439992146204022 0.5900542652134121 1.0000   
         H         H         1.0       0.11615624265699898           0.829382109947738  0.5529814317866915 1.0000   
         H         H         1.0       0.15739633851126478           0.9222868472688939 0.5275374308095583 1.0000   
         H         H         1.0       0.20520716576548692           0.936853384661906  0.5648888338707455 1.0000   
         H         H         1.0       0.14205143049129385           0.8271156336840452 0.9515190523551312 1.0000   
         H         H         1.0       0.11898102019078143           0.832796906282427  0.003310998143376098         1.0000   
         H         H         1.0       0.1602511545731337  0.92546552073722    0.9811808044496423 1.0000   
         H         H         1.0       0.18738704411441098           0.9220458485192706 0.9268383739995723 1.0000   
         H         H         1.0       0.09776969199512675           0.8986345326705522 0.5477982585764315 1.0000   
         H         H         1.0       0.08492492536147789           0.9328979885331974 0.5291342094989645 1.0000   
         H         H         1.0       0.09319750346528988           0.941722811636334  0.9611219735774932 1.0000   
         H         H         1.0       0.10328329623501276           0.905294943849164  0.9658317307781327 1.0000   
         H         H         1.0       0.06968997363342444           0.8451886675619712 0.986323668773236  1.0000   
         H         H         1.0       0.02999997183933867           0.7587096283544467 0.4661702572867668 1.0000   
         H         H         1.0       0.024647566641335272          0.7864336974008189 0.5746907671344146 1.0000   
         H         H         1.0       0.07027838515057418           0.8375337144234236 0.5618151560086697 1.0000   
         C         C         1.0       0.778507991456033   0.3127936843809666  0.7404437799953869 1.0000   
         C         C         1.0       0.7576690452590288  0.28578607679707674           0.7206278263222612 1.0000   
         C         C         1.0       0.7321113070522003  0.2615929965133146  0.7396907789629086 1.0000   
         C         C         1.0       0.7277931024304698  0.26256817136075306           0.7781227977130868 1.0000   
         C         C         1.0       0.745868836246258   0.2913557099545101  0.7944693063575021 1.0000   
         C         C         1.0       0.7715967028271395  0.31472020768237974           0.7763113422990217 1.0000   
         H         H         1.0       0.7620610987646016  0.28291041232688574           0.6918897852017272 1.0000   
         H         H         1.0       0.7189568024922325  0.24079693825402862           0.7223588729295425 1.0000   
         H         H         1.0       0.7423156522997465  0.2965683420469887  0.8231445837640049 1.0000   
         H         H         1.0       0.7854945692713203  0.33664338110003156           0.7917572564354994 1.0000   
         C         C         1.0       0.7522349919524666  0.24377307677721627           0.8455689241972449 1.0000   
         C         C         1.0       0.7197143222634963  0.23129586594420876           0.8403045999237299 1.0000   
         C         C         1.0       0.6998865631896318  0.21473856710484515           0.8697720885563578 1.0000   
         C         C         1.0       0.7123328508788593  0.21579258842513163           0.9055018055029879 1.0000   
         C         C         1.0       0.7449749251336817  0.22873841810465642           0.9090403062161982 1.0000   
         C         C         1.0       0.7638246559370725  0.2408892986789603  0.8782027871928795 1.0000   
         C         C         1.0       0.7053940469074597  0.23153423986648444           0.8009543862393236 1.0000   
         C         C         1.0       0.6973224451073909  0.2005619419203622  0.7819389974071408 1.0000   
         C         C         1.0       0.6677350205089779  0.17289166586283872           0.7868256185790115 1.0000   
         C         C         1.0       0.6615970097330998  0.14607028152147655           0.7719371644911375 1.0000   
         C         C         1.0       0.6820291648411845  0.14535537678729193           0.7459822959448692 1.0000   
         C         C         1.0       0.7103454964093837  0.17327324219511914           0.7388506730268174 1.0000   
         C         C         1.0       0.7183909815659965  0.19995174259591444           0.7577865259128115 1.0000   
         C         C         1.0       0.6728817971624854  0.24790473572423605           0.8328148716959956 1.0000   
         C         C         1.0       0.641176355457989   0.23563736690692566           0.8449563092868814 1.0000   
         C         C         1.0       0.6160450769752815  0.21796052855177547           0.8203497300238666 1.0000   
         C         C         1.0       0.6242824655589025  0.21652371461329992           0.7838369692816759 1.0000   
         C         C         1.0       0.6527975251149526  0.22316015740260006           0.7740607260240595 1.0000   
         C         C         1.0       0.6769785842148797  0.23458771964877467           0.8019176252188761 1.0000   
         C         C         1.0       0.5794028294337064  0.19014731847826868           0.8304755261299682 1.0000   
         C         C         1.0       0.5950608691096442  0.11853824398213053           0.8400841767529452 1.0000   
         C         C         1.0       0.6084423067114223  0.14127515793378395           0.8665057977266867 1.0000   
         C         C         1.0       0.6033253260798479  0.164433886824109   0.8637750988181125 1.0000   
         C         C         1.0       0.583664685386301   0.1632284649988021  0.8344783757856925 1.0000   
         C         C         1.0       0.5727672375037072  0.14121033671972294           0.8064752532399952 1.0000   
         C         C         1.0       0.5777347551559375  0.11845378109803728           0.8099208707704824 1.0000   
         C         C         1.0       0.5504381021391987  0.1837170976646053  0.8045140713664721 1.0000   
         C         C         1.0       0.5555360493577145  0.20620123963500311           0.7806332142861242 1.0000   
         C         C         1.0       0.5339496798979129  0.20032981698928135           0.7529964494069995 1.0000   
         C         C         1.0       0.5043711190454756  0.17261408052370228           0.7515188156517517 1.0000   
         C         C         1.0       0.4984922395104187  0.1512204913028859  0.7771114324870143 1.0000   
         C         C         1.0       0.5215093320469057  0.1571111774673518  0.8023746683085761 1.0000   
         C         C         1.0       0.5451050712482254  0.17031016536715166           0.8926692948385919 1.0000   
         C         C         1.0       0.5358138465496262  0.17391588726726134           0.9273445895202652 1.0000   
         C         C         1.0       0.5523018418471647  0.20360221453243754           0.9408495350353957 1.0000   
         C         C         1.0       0.5724274278428614  0.2286555009799276  0.9182370867134618 1.0000   
         C         C         1.0       0.5810156799436973  0.22434874573231645           0.8841363401421796 1.0000   
         C         C         1.0       0.5672355751058475  0.19574856939127824           0.8697607479397255 1.0000   
         H         H         1.0       0.7689271982642435  0.2543672217165437  0.8232042788270463 1.0000   
         H         H         1.0       0.6733358717992698  0.20150951805297976           0.8646730744518873 1.0000   
         H         H         1.0       0.6956131044741468  0.20981926025108114           0.9287227429113561 1.0000   
         H         H         1.0       0.7884849462064204  0.24912475021194516           0.8829127811878443 1.0000   
         H         H         1.0       0.6500568443170691  0.1721832023096032  0.8052434007030868 1.0000   
         H         H         1.0       0.6399475517886661  0.12492376181607456           0.7807594317672087 1.0000   
         H         H         1.0       0.7261300809180761  0.17350281716563123           0.7170758822741802 1.0000   
         H         H         1.0       0.7421804118384422  0.220200721786148   0.7525698709947923 1.0000   
         H         H         1.0       0.6916261080307529  0.2587932795525955  0.8538020563004715 1.0000   
         H         H         1.0       0.6382772969513135  0.2363938876475645  0.8751110891646535 1.0000   
         H         H         1.0       0.6051363334988482  0.20207091916250083           0.7616499384793222 1.0000   
         H         H         1.0       0.6560934385904096  0.21672333009442865           0.7463963625230028 1.0000   
         H         H         1.0       0.6222507324953773  0.14016872414131962           0.8898546787815329 1.0000   
         H         H         1.0       0.6143502489966038  0.18201112625448876           0.8852138847841373 1.0000   
         H         H         1.0       0.5547202259309867  0.13671290424464444           0.7854883128566162 1.0000   
         H         H         1.0       0.5651069876397481  0.09920584015051337           0.7903627757043306 1.0000   
         H         H         1.0       0.5770049538125205  0.22952216777766657           0.7813160765242265 1.0000   
         H         H         1.0       0.5429670889687501  0.2166773971253037  0.7314820604681382 1.0000   
         H         H         1.0       0.477974021546874   0.12840386966748935           0.7721382621817539 1.0000   
         H         H         1.0       0.5181183069822021  0.14038554312400325           0.8202527873637081 1.0000   
         H         H         1.0       0.5350709595085477  0.14776072939546175           0.8824568421633483 1.0000   
         H         H         1.0       0.5181897327666991  0.15467809830905088           0.9437799402092526 1.0000   
         H         H         1.0       0.5833088287488353  0.2522022512509916  0.9245062269991067 1.0000   
         H         H         1.0       0.5964934335195765  0.24381275833381363           0.8661453132017268 1.0000   
         C         C         1.0       0.6656503298286324  0.10749842662397446           0.6584203477923379 1.0000   
         C         C         1.0       0.6154937403067491  0.07259856367144835           0.13842172034267963          1.0000   
         C         C         1.0       0.6149623440804122  0.0801834727291093  0.1018284373670626 1.0000   
         C         C         1.0       0.643707520497382   0.10372250041476105           0.08356742624764824          1.0000   
         C         C         1.0       0.6726240147601161  0.11516338238286941           0.10195274719897451          1.0000   
         C         C         1.0       0.6718754399464256  0.10500269516601667           0.13762835453632238          1.0000   
         H         H         1.0       0.6400483825598233  0.06040812795043138           0.6583562649339628 1.0000   
         H         H         1.0       0.5911107954073279  0.07028640997196134           0.0888431482635994 1.0000   
         H         H         1.0       0.6951139046504753  0.1273034050516769  0.08695067901764242          1.0000   
         H         H         1.0       0.6958242109466952  0.11546862859198354           0.1493156268175111 1.0000   
         C         C         1.0       0.6923902712277595  0.1626798810643685  0.037090106674306345         1.0000   
         C         C         1.0       0.6695288070659816  0.13611982981054016           0.0176806855935292 1.0000   
         C         C         1.0       0.6751289531687498  0.13439906370402688           0.9804661114463497 1.0000   
         C         C         1.0       0.704000366263735   0.15723023649986875           0.9643279686313142 1.0000   
         C         C         1.0       0.7271771112797232  0.1823430621812017  0.9847762560516173 1.0000   
         C         C         1.0       0.7211811452657018  0.186086962047429   0.02168310464514356          1.0000   
         C         C         1.0       0.6401040714211466  0.10832967897207246           0.038568411162399174         1.0000   
         C         C         1.0       0.6135289539760619  0.11484064138843797           0.03712175546207841          1.0000   
         C         C         1.0       0.5933333514339068  0.10735715080031416           0.006697233883651954         1.0000   
         C         C         1.0       0.5698998093783729  0.1128422920356531  0.00734943084437556          1.0000   
         C         C         1.0       0.5682663798399756  0.12789730214825878           0.03722878925931683          1.0000   
         C         C         1.0       0.5931597222286102  0.14250734991499647           0.062221695107243846         1.0000   
         C         C         1.0       0.6153639529418929  0.13494210839486898           0.06284243028364878          1.0000   
         C         C         1.0       0.6607209594860943  0.07588973770783647           0.024193928902603412         1.0000   
         C         C         1.0       0.6612487338400209  0.05405100195970047           0.005947593892707825         1.0000   
         C         C         1.0       0.6342842978569377  0.030552374852011344         0.9851303582468725 1.0000   
         C         C         1.0       0.608097751306468   0.033744570283686715         0.9815477676285965 1.0000   
         C         C         1.0       0.6074152265662507  0.055272481180050015         0.002631232766518554         1.0000   
         C         C         1.0       0.6345469821741548  0.07754713004158598           0.02300204508171766          1.0000   
         C         C         1.0       0.6408219488631594  0.012143685856782493         0.9576240873433132 1.0000   
         C         C         1.0       0.693173897036749   0.0836809458224661  0.8751223037399246 1.0000   
         C         C         1.0       0.7095414639171184  0.07546041960262206           0.8946259972967452 1.0000   
         C         C         1.0       0.6931459707941174  0.05433384587425949           0.921613118263449  1.0000   
         C         C         1.0       0.6593134876330281  0.03676377187787461           0.9264506302247806 1.0000   
         C         C         1.0       0.643136027913743   0.044911259682543614         0.9025225953724677 1.0000   
         C         C         1.0       0.6600647030023626  0.06858104851787261           0.8781465051432622 1.0000   
         C         C         1.0       0.6084515993835355  0.9813620039092096  0.9442708975368295 1.0000   
         C         C         1.0       0.5830121360734323  0.9626858840264317  0.967407565582593  1.0000   
         C         C         1.0       0.5547950166369164  0.9382087427307774  0.9528841403913542 1.0000   
         C         C         1.0       0.5531861541615863  0.9278891733518174  0.9166047472554375 1.0000   
         C         C         1.0       0.5783803249240437  0.9460642632660685  0.8925518187659086 1.0000   
         C         C         1.0       0.6050701417452855  0.9720980308522112  0.9073494844507363 1.0000   
         C         C         1.0       0.6744808436850076  0.9902664444753596  0.9496817909030568 1.0000   
         C         C         1.0       0.6959434175159792  0.9845466383656243  0.9615377657016922 1.0000   
         C         C         1.0       0.7036722611266598  0.9864878190499529  0.9993035582488009 1.0000   
         C         C         1.0       0.6874499536497132  0.9920463117249245  0.02410745540821435          1.0000   
         C         C         1.0       0.664423938378972   0.9969175405058008  0.012522296568737934         1.0000   
         C         C         1.0       0.6608255183125906  0.9993165226562739  0.9735949211212943 1.0000   
         H         H         1.0       0.6868226336004082  0.16548045414508458           0.06557687220585118          1.0000   
         H         H         1.0       0.6591434526871568  0.11319900613806033           0.9628126729915457 1.0000   
         H         H         1.0       0.7063420409362042  0.15498587951255277           0.9357896605375531 1.0000   
         H         H         1.0       0.7406414398096197  0.20531464964003346           0.037151073470366835         1.0000   
         H         H         1.0       0.599031861056666   0.10036121421396005           0.9817586537192272 1.0000   
         H         H         1.0       0.5526684022257972  0.1042822464042481  0.9848536085812043 1.0000   
         H         H         1.0       0.592401601456616   0.15635151113674306           0.08191893452031174          1.0000   
         H         H         1.0       0.6327635523646624  0.1470475702114471  0.0857453908198611 1.0000   
         H         H         1.0       0.6825546532626183  0.091962603788184   0.038826668132584174         1.0000   
         H         H         1.0       0.6844640431117849  0.056305045462847536         0.006215981662609504         1.0000   
         H         H         1.0       0.5877842569450532  0.019132362784155532         0.9630722568107628 1.0000   
         H         H         1.0       0.586134651423643   0.0546812854597698  0.0027615147915218685        1.0000   
         H         H         1.0       0.7356690537579951  0.08704556730275281           0.8916354373433725 1.0000   
         H         H         1.0       0.7092127942732281  0.05259030197350678           0.9402421543131603 1.0000   
         H         H         1.0       0.616811520933197   0.03173458023347031           0.9017084544641129 1.0000   
         H         H         1.0       0.647080794358025   0.073767854938525   0.8600789159805968 1.0000   
         H         H         1.0       0.5867655118460045  0.9705942656462299  0.9982905975390585 1.0000   
         H         H         1.0       0.5347333454240276  0.9255282864544109  0.9712527403489395 1.0000   
         H         H         1.0       0.5760433928153034  0.9397157385446288  0.8636682244582632 1.0000   
         H         H         1.0       0.6232992005257004  0.9834595124368152  0.8869283132986635 1.0000   
         H         H         1.0       0.6719012107419867  0.9906026325457904  0.9196380677944521 1.0000   
         H         H         1.0       0.7088265733647451  0.9799216111806408  0.9430318290611006 1.0000   
         H         H         1.0       0.6922281738283552  0.9933547910376995  0.05441745418941957          1.0000   
         H         H         1.0       0.6519360351767304  0.002448910702312901         0.03209930675071404          1.0000   
         C         C         1.0       0.4878681242815093  0.3148053614796279  0.04163846613774358          1.0000   
         C         C         1.0       0.5156000347127733  0.3372974863757318  0.024284255430429003         1.0000   
         C         C         1.0       0.5201000792821416  0.33224549892704275           0.9874782299202826 1.0000   
         C         C         1.0       0.4962255671054545  0.3067032921237192  0.964500920209865  1.0000   
         C         C         1.0       0.4672907683851588  0.28570088886070216           0.9835297355970735 1.0000   
         C         C         1.0       0.46473573840797805           0.289307314596807  0.021548478490513112         1.0000   
         H         H         1.0       0.5344649461921985  0.3565401665919115  0.04114212924286931          1.0000   
         H         H         1.0       0.5459122745640151  0.34744582992879586           0.9801364026058977 1.0000   
         H         H         1.0       0.44930325860767123           0.2647817626743479 0.9699146794957803 1.0000   
         H         H         1.0       0.44112765202802245           0.27122027698631074          0.03348153051674663          1.0000   
         C         C         1.0       0.4856595906811764  0.26497026224531417           0.8679757669994361 1.0000   
         C         C         1.0       0.478751711999181   0.2795258047722497  0.8946629600027305 1.0000   
         C         C         1.0       0.4504056767887022  0.2774977457370015  0.8900397102363654 1.0000   
         C         C         1.0       0.4309763237094717  0.26347130564112287           0.8599138623538629 1.0000   
         C         C         1.0       0.4396636761961504  0.25117170753704876           0.8317391578169703 1.0000   
         C         C         1.0       0.4652575032335528  0.2491514442848147  0.8376625991233327 1.0000   
         C         C         1.0       0.5058728463425256  0.30062255611333516           0.9246619687627234 1.0000   
         C         C         1.0       0.5215770854174653  0.2841175754337902  0.9405625945808733 1.0000   
         C         C         1.0       0.5545863883976778  0.3005731262663468  0.9491784088464773 1.0000   
         C         C         1.0       0.5676552257963997  0.287803368307874   0.9673791999546795 1.0000   
         C         C         1.0       0.5487026071636991  0.2564371184181563  0.975867929196969  1.0000   
         C         C         1.0       0.515671695103346   0.24128992710686495           0.9678789479086921 1.0000   
         C         C         1.0       0.5019170275287536  0.25396822156074317           0.9507366206291689 1.0000   
         C         C         1.0       0.5140222730054935  0.35275636926758525           0.9060587631668685 1.0000   
         C         C         1.0       0.5263539046579302  0.37563910662650496           0.8817004512931755 1.0000   
         C         C         1.0       0.5475905508732821  0.3804928597483508  0.8534840338432471 1.0000   
         C         C         1.0       0.5584198614928932  0.36204854767423655           0.8536643192660882 1.0000   
         C         C         1.0       0.5465204493360527  0.33887114116030703           0.8779778128531531 1.0000   
         C         C         1.0       0.5238161671756112  0.33259605611842674           0.9053192563961728 1.0000   
         C         C         1.0       0.5551180836318963  0.403074546728734   0.8206323946482535 1.0000   
         C         C         1.0       0.46778173485998426           0.34891441390640654          0.7510948294902443 1.0000   
         C         C         1.0       0.46746161535745007           0.36468137243656235          0.7807760595858607 1.0000   
         C         C         1.0       0.4957250912986011  0.38161219010526426           0.8026085348927838 1.0000   
         C         C         1.0       0.5228206642720356  0.38250096810181305           0.7984777015333271 1.0000   
         C         C         1.0       0.5213323494418387  0.3661151213054553  0.767001054546126  1.0000   
         C         C         1.0       0.4957169777627548  0.3502643716966314  0.7434443541156258 1.0000   
         C         C         1.0       0.5865806358424672  0.41485005975004263           0.7967294575232282 1.0000   
         C         C         1.0       0.6147652254940306  0.4201475382155823  0.81266399296386   1.0000   
         C         C         1.0       0.6437031692396661  0.43325156027718015           0.7939035534622135 1.0000   
         C         C         1.0       0.6429055081742909  0.4379743269069763  0.7542968691353058 1.0000   
         C         C         1.0       0.6147065395480621  0.4336983418292025  0.7397210713896225 1.0000   
         C         C         1.0       0.5888095866473431  0.4251812412401156  0.7612620651799212 1.0000   
         C         C         1.0       0.5515623728206018  0.44796589159677147           0.8212690220969067 1.0000   
         C         C         1.0       0.5526855189578564  0.47157773748493126           0.838483449488261  1.0000   
         C         C         1.0       0.5680630616964799  0.48279105139330847           0.8722719243735171 1.0000   
         C         C         1.0       0.5835597262757505  0.4706876493007318  0.887268556022401  1.0000   
         C         C         1.0       0.5836383617627803  0.44848349933036497           0.8699301974114044 1.0000   
         C         C         1.0       0.5629783144527682  0.4333349669556858  0.8383788007906552 1.0000   
         H         H         1.0       0.5091629966057933  0.2674285531199659  0.8694677094585311 1.0000   
         H         H         1.0       0.44517791541285245           0.28833532487987423          0.9103708621459575 1.0000   
         H         H         1.0       0.41284853567788765           0.2683035955889982 0.8546409423292611 1.0000   
         H         H         1.0       0.4719696947918417  0.23932132738930428           0.8159373769886573 1.0000   
         H         H         1.0       0.570130099787382   0.3251160319695029  0.9425131705919995 1.0000   
         H         H         1.0       0.591716538928196   0.2983042622959827  0.9761104938845646 1.0000   
         H         H         1.0       0.4988587138840633  0.2187805927023061  0.9783160719815268 1.0000   
         H         H         1.0       0.47692286401846934           0.24268418767269298          0.9486406392747128 1.0000   
         H         H         1.0       0.4959773578442701  0.3492769884720748  0.925336694274194  1.0000   
         H         H         1.0       0.5157307030134517  0.38768160473966523           0.8781671546600559 1.0000   
         H         H         1.0       0.5749136289718598  0.3632992563421676  0.8329688642182207 1.0000   
         H         H         1.0       0.5526015535720411  0.3216350259410825  0.8761216978076362 1.0000   
         H         H         1.0       0.44417490787323666           0.3628043659126329 0.7865500051388193 1.0000   
         H         H         1.0       0.49191473676960606           0.39295281405126864          0.8243993604885855 1.0000   
         H         H         1.0       0.5431885740352508  0.36820603763843096           0.7589315863902831 1.0000   
         H         H         1.0       0.5008229497258191  0.342618230722074   0.7179321948766768 1.0000   
         H         H         1.0       0.6178365963958845  0.4205539768317283  0.8422055228728527 1.0000   
         H         H         1.0       0.6673485881730178  0.4389948110157982  0.8059657601363153 1.0000   
         H         H         1.0       0.6116876854204709  0.43542910785389305           0.7095550896681787 1.0000   
         H         H         1.0       0.5700116013687692  0.4251551914365864  0.7472888382906255 1.0000   
         H         H         1.0       0.538614238144818   0.44060703899387677           0.794842989413386  1.0000   
         H         H         1.0       0.5399898602603963  0.4796962240087961  0.8228133033308015 1.0000   
         H         H         1.0       0.5972032555744169  0.4806831937839145  0.9128710281665324 1.0000   
         H         H         1.0       0.5988460584821261  0.44165134903150305           0.8835691613092571 1.0000   
         C         C         1.0       0.2808994209204747  0.20159734539605983           0.1392586422087132 1.0000   
         C         C         1.0       0.3014860728711935  0.21309179728352612           0.17021457371216697          1.0000   
         C         C         1.0       0.3281492799447773  0.212388914377212   0.17071303809953942          1.0000   
         C         C         1.0       0.3366658184590638  0.20332749082541476           0.1388795169540571 1.0000   
         C         C         1.0       0.31582169360007745           0.19171398865846043          0.10833123336493733          1.0000   
         C         C         1.0       0.28867847762427296           0.19114622314944013          0.10867473037893616          1.0000   
         H         H         1.0       0.28051708677690546           0.19899071396725757          0.6872945020145543 1.0000   
         H         H         1.0       0.34407207354104796           0.22214331325023565          0.19336617254871102          1.0000   
         H         H         1.0       0.3210950248672138  0.18280904165243703           0.08374471945308137          1.0000   
         H         H         1.0       0.27248312809664793           0.18137830584423983          0.08617382075219493          1.0000   
         C         C         1.0       0.3756512190583427  0.19746523564857918           0.6831433863558393 1.0000   
         C         C         1.0       0.37978811191347583           0.19968446489576064          0.1728653323635725 1.0000   
         C         C         1.0       0.41855628452162197           0.2430331518854116 0.6536400109356848 1.0000   
         C         C         1.0       0.4350230324129161  0.2523877129344762  0.687888755171116  1.0000   
         C         C         1.0       0.420485191955214   0.23499282074880448           0.7202063010471768 1.0000   
         C         C         1.0       0.390718901943386   0.2070382544861749  0.7163574191193922 1.0000   
         C         C         1.0       0.37215874760735596           0.21180939845104557          0.13596070917725056          1.0000   
         C         C         1.0       0.39227128738786    0.2474844119827272  0.12847863892584255          1.0000   
         C         C         1.0       0.39221042454113664           0.2601868022337493 0.09461556580836006          1.0000   
         C         C         1.0       0.4142487258398531  0.2898915412906267  0.08751951777567157          1.0000   
         C         C         1.0       0.43843529252541114           0.30805294216492723          0.11238804397078983          1.0000   
         C         C         1.0       0.43573015488422234           0.29811033277591753          0.14827741708509512          1.0000   
         C         C         1.0       0.41337253869196694           0.2677745392528793 0.15623891763758202          1.0000   
         C         C         1.0       0.35698975363288754           0.1606958040637644 0.10399482151826867          1.0000   
         C         C         1.0       0.36279255966179536           0.14283180737812579          0.08235962223414317          1.0000   
         C         C         1.0       0.38990881591522814           0.15682497620748004          0.06056783381544828          1.0000   
         C         C         1.0       0.4074589548878744  0.18758455750047726           0.05713361146487017          1.0000   
         C         C         1.0       0.40181272307336574           0.2058801979040327 0.0787010028018118 1.0000   
         C         C         1.0       0.3765573422305337  0.19311914979306571           0.1041219858467397 1.0000   
         C         C         1.0       0.4019102579435803  0.13956673805894376           0.039470017128916846         1.0000   
         C         C         1.0       0.4725855706549191  0.1478005647153388  0.6448122611730714 1.0000   
         C         C         1.0       0.439950386830444   0.12332109642180497           0.644746726512565  1.0000   
         C         C         1.0       0.4204156521318427  0.12022673645539185           0.6147649416240226 1.0000   
         C         C         1.0       0.42624895490058584           0.1440069313376739 0.07222278863438136          1.0000   
         C         C         1.0       0.4583752317308053  0.17011276811835324           0.07465694338818496          1.0000   
         C         C         1.0       0.47951225930139807           0.17515576593673296          0.10217439888436064          1.0000   
         C         C         1.0       0.41488498007234365           0.15263324428851582          0.9982322837415885 1.0000   
         C         C         1.0       0.39887376832392984           0.16057561448757882          0.975250990672203  1.0000   
         C         C         1.0       0.408389659075606   0.16861480100819193           0.9386398414696854 1.0000   
         C         C         1.0       0.4327826896476136  0.16639415954038342           0.9248218106918129 1.0000   
         C         C         1.0       0.44895884566963334           0.16008639370609362          0.9489551297318927 1.0000   
         C         C         1.0       0.4413616530644148  0.15439061019203446           0.9855545556213013 1.0000   
         C         C         1.0       0.38482871855748363           0.08460360896248953          0.022863887303472108         1.0000   
         C         C         1.0       0.36547154645542795           0.05810488581335016          0.0053370011122828576        1.0000   
         C         C         1.0       0.3359765290283218  0.049759264736921605         0.9905671077371305 1.0000   
         C         C         1.0       0.32695062370732436           0.06953921139445063          0.9954083739968148 1.0000   
         C         C         1.0       0.34779753364120647           0.09790619082637696          0.011537192932517426         1.0000   
         C         C         1.0       0.3773153441615212  0.10607670544269157           0.024870050338305916         1.0000   
         H         H         1.0       0.35346664358425633           0.1750762966189798 0.6833963056693135 1.0000   
         H         H         1.0       0.4300366872511995  0.22803426307835734           0.16339367039293173          1.0000   
         H         H         1.0       0.4600728334011616  0.2732278356483125  0.6864079285358023 1.0000   
         H         H         1.0       0.37956657816380196           0.19324229831218287          0.7391204075695489 1.0000   
         H         H         1.0       0.3781518198411448  0.24712618292858635           0.0690504532450027 1.0000   
         H         H         1.0       0.4178845410615711  0.2966527609045086  0.0600616135082086 1.0000   
         H         H         1.0       0.4525043667074703  0.31083278054576513           0.1688373328857382 1.0000   
         H         H         1.0       0.41429001847997393           0.26205062062043577          0.18321452812149808          1.0000   
         H         H         1.0       0.3389740189492091  0.1507045349654479  0.12452601487108916          1.0000   
         H         H         1.0       0.3502306798916047  0.11920444497969422           0.08703180704081359          1.0000   
         H         H         1.0       0.43038700689642456           0.20199685360825978          0.0430954402730892 1.0000   
         H         H         1.0       0.4203582302133746  0.23055103763132045           0.0812399929556682 1.0000   
         H         H         1.0       0.4295516573718984  0.10865178618501388           0.6667687853059956 1.0000   
         H         H         1.0       0.39470648508854117           0.10122697946635065          0.6173854930084689 1.0000   
         H         H         1.0       0.4652910305185244  0.1867335102975161  0.054037732722749476         1.0000   
         H         H         1.0       0.5042392519823705  0.1946106102689015  0.1007502649366605 1.0000   
         H         H         1.0       0.37765699335163855           0.15849928666509888          0.9859597595483844 1.0000   
         H         H         1.0       0.392982930908217   0.17028347071505054           0.9188228737006271 1.0000   
         H         H         1.0       0.4656249885105029  0.15610412356665002           0.9355845457103891 1.0000   
         H         H         1.0       0.4524843154801998  0.1449924636028165  0.000531473159613105         1.0000   
         H         H         1.0       0.4077778827756575  0.0920864063028517  0.03408604246943603          1.0000   
         H         H         1.0       0.3737822888302615  0.04341260686484971           0.0005790666141314293        1.0000   
         H         H         1.0       0.3030395816680099  0.061291628462444514         0.9825290398103392 1.0000   
         H         H         1.0       0.3421980327406916  0.11476310953560531           0.013577074416462942         1.0000   
         C         C         1.0       0.486951850897731   0.3163388113920684  0.08290840683502787          1.0000   
         C         C         1.0       0.4712793699526305  0.3322264626858676  0.09608436893167194          1.0000   
         H         H         1.0       0.4756965841409205  0.2924357858629536  0.09464346991747918          1.0000   
         H         H         1.0       0.5110641663354991  0.3273796218701213  0.09671880342382577          1.0000   
         H         H         1.0       0.4678488087830435  0.34429709779755174           0.07208174379820842          1.0000   
         H         H         1.0       0.4878463274269201  0.3503112941122977  0.11635870381119351          1.0000   
         C         C         1.0       0.4410766092126281  0.24976710667672328           0.7583477918959749 1.0000   
         C         C         1.0       0.4211192958970202  0.23750242230394739           0.7955979407997942 1.0000   
         H         H         1.0       0.4540676655267915  0.27341003700577476           0.759032291278791  1.0000   
         H         H         1.0       0.4611612328987034  0.24590328824824526           0.7591922470429904 1.0000   
         H         H         1.0       0.4095740977508492  0.2120984747824818  0.7959385116669814 1.0000   
         H         H         1.0       0.40169351810199766           0.24115899234954946          0.7947921241181171 1.0000   
         C         C         1.0       0.5497694893135389  0.20971413167972308           0.9805645748742379 1.0000   
         C         C         1.0       0.5620866150640993  0.24157196991119395           0.995812275909058  1.0000   
         H         H         1.0       0.5226544701072877  0.19324627125681063           0.988314064850352  1.0000   
         H         H         1.0       0.5636407873912451  0.203912368050211   0.9985846613394882 1.0000   
         H         H         1.0       0.5542721442459427  0.23894175337695198           0.02550789500018169          1.0000   
         H         H         1.0       0.5879749378370543  0.25742356288338436           0.9951401951370407 1.0000   
         C         C         1.0       0.4940754429174289  0.15464560086132875           0.6797017616464173 1.0000   
         C         C         1.0       0.4825357195808166  0.1626540363426264  0.7160721299056    1.0000   
         H         H         1.0       0.49342204272481494           0.13484399719786902          0.6864078840228732 1.0000   
         H         H         1.0       0.5214019554217758  0.1727821297905345  0.6748682327219405 1.0000   
         H         H         1.0       0.4580441642582288  0.14284132362201182           0.7226844181504146 1.0000   
         H         H         1.0       0.4814808542171496  0.1830564102588903  0.7116667098158983 1.0000   
         C         C         1.0       0.6843272976042897  0.11066314691453706           0.6926173411624224 1.0000   
         C         C         1.0       0.6710072068888269  0.11389277937317299           0.7306959711225207 1.0000   
         H         H         1.0       0.7102068026181626  0.1307823318282355  0.6911502307569918 1.0000   
         H         H         1.0       0.6843790868471339  0.08873222237164441           0.6919725128512773 1.0000   
         H         H         1.0       0.6812789967305376  0.10695540940279535           0.7530720754970578 1.0000   
         H         H         1.0       0.6448954924676421  0.0978011529873064  0.7321874031952769 1.0000   
         C         C         1.0       0.760576869568912   0.23300640318179333           0.9479441635173528 1.0000   
         C         C         1.0       0.7578254678431638  0.2047309054637596  0.9646079979855819 1.0000   
         H         H         1.0       0.748635735553856   0.23893856966106009           0.9684955603820445 1.0000   
         H         H         1.0       0.7868509697475088  0.2518485030173425  0.9457687898590691 1.0000   
         H         H         1.0       0.7783595970773928  0.21414940824724704           0.9833009052465348 1.0000   
         H         H         1.0       0.7621842960391907  0.1931198003217203  0.9404445755247623 1.0000   
         C         C         1.0       0.3181727279426012  0.9964896351724433  0.9619383717748169 1.0000   
         C         C         1.0       0.3202402027531688  0.02673741416297748           0.9593879452128987 1.0000   
         H         H         1.0       0.343492882736531   0.003744612095823996         0.9667073933225745 1.0000   
         H         H         1.0       0.3305879422427292  0.9750126891699706  0.46381107072367467          1.0000   
         H         H         1.0       0.29549585150567753           0.018959228700371922         0.9532598487566242 1.0000   
         H         H         1.0       0.331642790447731   0.0370861266471314  0.9332525699933151 1.0000   
         C         C         1.0       0.5123238074236844  0.1131172087885377  0.05537080524229476          1.0000   
         C         C         1.0       0.544146678883635   0.1349996226550776  0.03467084167374779          1.0000   
         H         H         1.0       0.5072727113853908  0.12793461803699624           0.07032494294141256          1.0000   
         H         H         1.0       0.5158681769363197  0.1009305153563973  0.07634183598966371          1.0000   
         H         H         1.0       0.537302996972582   0.13590876777679073           0.006293180939171306         1.0000   
         H         H         1.0       0.5563283181135804  0.1604917020940122  0.04323475883318384          1.0000   
         C         C         1.0       0.5732896673107911  0.07236653175245356           0.8869491221041267 1.0000   
         C         C         1.0       0.5926921628852302  0.08921076891157931           0.8498586781377484 1.0000   
         H         H         1.0       0.5691627266602461  0.05035051159667381           0.8862425680871405 1.0000   
         H         H         1.0       0.5890156182874308  0.08554921732031517           0.9111155775466272 1.0000   
         H         H         1.0       0.5810348123616929  0.07167512790270725           0.8255350513443674 1.0000   
         H         H         1.0       0.6169567257071954  0.09380066345805504           0.853103894821433  1.0000   
         C         C         1.0       0.4406917959666959  0.16812856402344054           0.8828985443114895 1.0000   
         C         C         1.0       0.4165313908394103  0.13948511213533266           0.8603850016192305 1.0000   
         H         H         1.0       0.4425497486961617  0.1896119783931284  0.8724325209932783 1.0000   
         H         H         1.0       0.4653593054373045  0.17528578195334177           0.8809247458313253 1.0000   
         H         H         1.0       0.3914962196141551  0.13132259905137578           0.8676225349208905 1.0000   
         H         H         1.0       0.41911233616123555           0.14490805258647432          0.8305463507536589 1.0000   
         C         C         1.0       0.2658226095715687  0.9255108984258302  0.7587484658035708 1.0000   
         C         C         1.0       0.22937587653340677           0.9058660117723139 0.7470447961330381 1.0000   
         H         H         1.0       0.2718230758717586  0.9490130821734687  0.7561462967812234 1.0000   
         H         H         1.0       0.2779053428615844  0.9209869236766581  0.7350296678891018 1.0000   
         H         H         1.0       0.22028795934514447           0.918490313546329  0.7590156609271637 1.0000   
         H         H         1.0       0.21472445993429162           0.8834156944229054 0.7596767443816331 1.0000   
         C         C         1.0       0.29646813064948846           0.8473896488126347 0.01360470155321103          1.0000   
         C         C         1.0       0.26583877801437455           0.8311892183719563 0.03556423556636523          1.0000   
         H         H         1.0       0.30412178100159293           0.831537739935735  0.008564432693808133         1.0000   
         H         H         1.0       0.3170508105034591  0.8647444509260039  0.03074074797146653          1.0000   
         H         H         1.0       0.2468508827095186  0.8132869321798926  0.015056613970800159         1.0000   
         H         H         1.0       0.26893289828928585           0.8170124622344878 0.05750860297789018          1.0000   
         C         C         1.0       0.24962389295894583           0.2209501725360224 0.10771351432300924          1.0000   
         C         C         1.0       0.25044518613593486           0.20035965530921593          0.13595579372250954          1.0000   
         H         H         1.0       0.224413211334493   0.215454492610941   0.1080134746822119 1.0000   
         H         H         1.0       0.25002387951691507           0.2134364298529081 0.07989009536705183          1.0000   
         H         H         1.0       0.22778128979535345           0.1767489266112323 0.13384523449074615          1.0000   
         H         H         1.0       0.2468483070732062  0.20574050445507042           0.1640865726237979 1.0000   
         C         C         1.0       0.40722278055460237           0.3032582702918227 0.7309217935344043 1.0000   
         C         C         1.0       0.4407822960032612  0.33271534740337694           0.7203352378283541 1.0000   
         H         H         1.0       0.4056123856777115  0.2821180307401789  0.7292307680268015 1.0000   
         H         H         1.0       0.40417155841499747           0.29990346068751883          0.7608311021366932 1.0000   
         H         H         1.0       0.4398269956960444  0.3518701798011302  0.7111774185196897 1.0000   
         H         H         1.0       0.44632227332512414           0.3269658163026575 0.6943377394637488 1.0000   
         C         C         1.0       0.2830294727723323  0.4066096423915043  0.8728273827736923 1.0000   
         C         C         1.0       0.25412956423289507           0.385330678973405  0.847620871541634  1.0000   
         H         H         1.0       0.3032263696840125  0.40522482519752534           0.8639142576880816 1.0000   
         H         H         1.0       0.27859382901426427           0.39829167605039145          0.9016931357901063 1.0000   
         H         H         1.0       0.23398070011273941           0.3868491849205209 0.8502185335391237 1.0000   
         H         H         1.0       0.24369480363545695           0.36144991315223196          0.8538876464393961 1.0000   
         C         C         1.0       0.3491408771696864  0.5514165421397391  0.08159899455655939          1.0000   
         C         C         1.0       0.3170062265550204  0.5363800819834497  0.06040188880334618          1.0000   
         H         H         1.0       0.3492671208659273  0.5670645427834753  0.1005954313724422 1.0000   
         H         H         1.0       0.36948983872380947           0.5654938654799601 0.062498037134039786         1.0000   
         H         H         1.0       0.29925985014088535           0.513520398283951  0.07360614652508235          1.0000   
         H         H         1.0       0.30822858111461193           0.5519368514943965 0.06697829156263402          1.0000   
         C         C         1.0       0.19886534634759878           0.407654934409062  0.5429709656198026 1.0000   
         C         C         1.0       0.20636583812565146           0.41510707654681883          0.5852739928549274 1.0000   
         H         H         1.0       0.2187483686695024  0.4085281597523492  0.5290388487759947 1.0000   
         H         H         1.0       0.20032555174612388           0.4263296881388014 0.5305141278963321 1.0000   
         H         H         1.0       0.1883109637435125  0.41738844472755104           0.5970608873303463 1.0000   
         H         H         1.0       0.2283051408041979  0.43971260394834044           0.5836013869568893 1.0000   
         C         C         1.0       0.12960725998239095           0.3804163318687541 0.9000242722755158 1.0000   
         C         C         1.0       0.16491557417189961           0.4050903199767614 0.8927620233647786 1.0000   
         H         H         1.0       0.12020578164792184           0.36065680688035195          0.8797207059257847 1.0000   
         H         H         1.0       0.11698441481228608           0.3916517586867833 0.8970379993515741 1.0000   
         H         H         1.0       0.17389096525430658           0.392164923033623  0.8831633080466272 1.0000   
         H         H         1.0       0.17665361244804562           0.4177851842442273 0.9206998692490079 1.0000   
         C         C         1.0       0.8105542014236697  0.33510005247774327           0.7233707203357388 1.0000   
         C         C         1.0       0.8392148043700857  0.33503827854887136           0.7395573783018666 1.0000   
         H         H         1.0       0.8093541064728956  0.33200016492997036           0.6945975972963622 1.0000   
         H         H         1.0       0.8153246283926088  0.35841002335528355           0.7246553116477644 1.0000   
         H         H         1.0       0.8503627388032109  0.35136518687691504           0.764778800617394  1.0000   
         H         H         1.0       0.8594283197252666  0.3472807891623522  0.7173635880518157 1.0000   
         C         C         1.0       0.7245084049219478  0.14059050050815058           0.8620954890755096 1.0000   
         C         C         1.0       0.7121312219067419  0.1081269813716319  0.8448901940637186 1.0000   
         H         H         1.0       0.7284490223644298  0.14114190829978462           0.8921399767429428 1.0000   
         H         H         1.0       0.7053661331890051  0.14371771326338853           0.8640694191549264 1.0000   
         H         H         1.0       0.6953368910528531  0.10149985282922813           0.8215076546377411 1.0000   
         H         H         1.0       0.7333139605115606  0.10991496987440376           0.8344961741225727 1.0000   
         C         C         1.0       0.9046222016750701  0.20561884825414198           0.0172067794546662 1.0000   
         C         C         1.0       0.9129589617064143  0.23311177451323384           0.9944735507268926 1.0000   
         H         H         1.0       0.8874296698062577  0.18318621667724996           0.0013831392940721887        1.0000   
         H         H         1.0       0.8878739233859638  0.20409675825845086           0.04012225809719028          1.0000   
         H         H         1.0       0.8901063509208786  0.23107756185594974           0.9914113919759916 1.0000   
         H         H         1.0       0.9275449910213576  0.2537262537658514  0.012538935356367853         1.0000   
         C         C         1.0       0.01212619663491954           0.18195632712134707          0.7388709743102586 1.0000   
         C         C         1.0       0.9891181184364947  0.1752524033310066  0.7709699012735849 1.0000   
         H         H         1.0       0.014341364258970257          0.16312343194910492          0.7361425445831667 1.0000   
         H         H         1.0       0.03799733648640968           0.20356276223668263          0.7457183058333607 1.0000   
         H         H         1.0       0.9961872023433402  0.16620065047919663           0.7935359197419288 1.0000   
         H         H         1.0       0.9646707055235227  0.1549884515699642  0.7610705289179376 1.0000   
         C         C         1.0       0.9955653143069327  0.7385308143923666  0.528002071973704  1.0000   
         C         C         1.0       0.006032339313150947          0.7169308690565765 0.5300549720183388 1.0000   
         H         H         1.0       0.9797261129108404  0.7298291474236251  0.5038856678363735 1.0000   
         H         H         1.0       0.9813610970231785  0.7377874237522218  0.5515666015195314 1.0000   
         H         H         1.0       0.031203379719833668          0.7273830806122018 0.5256108175433012 1.0000   
         H         H         1.0       0.9958836428664678  0.7007427746387848  0.5077174988858787 1.0000   
         C         C         1.0       0.05264180152199249           0.9612210318309189 0.9959220389267073 1.0000   
         C         C         1.0       0.08152065900001126           0.9712588597345374 0.020439191247841215         1.0000   
         H         H         1.0       0.0473059578137327  0.9783765726469533  0.9958058534293739 1.0000   
         H         H         1.0       0.05900083760698882           0.960040542204014  0.9659554538669282 1.0000   
         H         H         1.0       0.07410043736268435           0.975834610360717  0.04865089973002101          1.0000   
         H         H         1.0       0.10380104170286142           0.9936950131116118 0.01281105635794666          1.0000   
         C         C         1.0       0.9301611910794797  0.7500546928717484  0.9154118699501185 1.0000   
         C         C         1.0       0.9416634238387243  0.7302538899178171  0.9019740262838024 1.0000   
         H         H         1.0       0.9041461667708849  0.7354735693920288  0.9157345644822793 1.0000   
         H         H         1.0       0.9324548848555478  0.765660817998947   0.8947851858921368 1.0000   
         H         H         1.0       0.923905983246114   0.7068895605769371  0.9140430203416887 1.0000   
         H         H         1.0       0.9657334928703837  0.7391764225735377  0.9132867742618654 1.0000   
         C         C         1.0       0.024369604133827938          0.8541430072234921 0.6448550826574445 1.0000   
         C         C         1.0       0.047100931887046116          0.845823802544444  0.660593675725375  1.0000   
         H         H         1.0       0.03914964067605009           0.879773316698485  0.6424686420425726 1.0000   
         H         H         1.0       0.006455056424301775          0.8500396752168893 0.666832540151283  1.0000   
         H         H         1.0       0.06822946612806646           0.8651160428551596 0.6764485849004287 1.0000   
         H         H         1.0       0.06043828213796121           0.8440554145775413 0.6391151961213025 1.0000   
         C         C         1.0       0.35364346181653195           0.8316010722769156 0.8073736677892273 1.0000   
         C         C         1.0       0.3836375711861036  0.8514621047413476  0.8336190711801956 1.0000   
         H         H         1.0       0.35416686686881527           0.8119655120515253 0.8009688716327119 1.0000   
         H         H         1.0       0.36002007890692256           0.8420704700402062 0.7798168138392435 1.0000   
         H         H         1.0       0.4050255119945707  0.8563262250490122  0.817449768998145  1.0000   
         H         H         1.0       0.38119277430265286           0.839329935133889  0.8582177780099812 1.0000   
         C         C         1.0       0.21300474726410984           0.8757778094722494 0.9125302263664744 1.0000   
         C         C         1.0       0.18105544414054917           0.8709227395366508 0.8995949605206776 1.0000   
         H         H         1.0       0.23255880147110894           0.8981466433859452 0.90346518645238   1.0000   
         H         H         1.0       0.2186084313540596  0.8785109623343565  0.9423402031854744 1.0000   
         H         H         1.0       0.1675616843214523  0.8489828264149543  0.8862346430677991 1.0000   
         H         H         1.0       0.1845478883106182  0.8865765685471778  0.878532213684546  1.0000   
         C         C         1.0       0.119937175856171   0.5655932490216613  0.7793293520690544 1.0000   
         C         C         1.0       0.1485780540092157  0.5695601823304527  0.7568933185597766 1.0000   
         H         H         1.0       0.10516307972771939           0.566574019221536  0.7589546259956726 1.0000   
         H         H         1.0       0.10447320188659052           0.5407342067488579 0.7875814020041304 1.0000   
         H         H         1.0       0.167159506717072   0.5937064501337896  0.7496978066679233 1.0000   
         H         H         1.0       0.13953318178874133           0.5581514082726395 0.7283381112664262 1.0000   
         C         C         1.0       0.10417247477845759           0.6837244281845783 0.7278897998780374 1.0000   
         C         C         1.0       0.12453698848027946           0.7195302306752007 0.7261533580794258 1.0000   
         H         H         1.0       0.10163075525384646           0.6752362566076043 0.7560220216575182 1.0000   
         H         H         1.0       0.11766513606121547           0.6769311247140934 0.7128623409201861 1.0000   
         H         H         1.0       0.10955952878463965           0.7277029920261693 0.7273873121683689 1.0000   
         H         H         1.0       0.1376920815592859  0.7256335382594096  0.6986472724764331 1.0000   
         C         C         1.0       0.07771122058941748           0.4061745970212302 0.8043202498108891 1.0000   
         C         C         1.0       0.08240213524389706           0.3812146146006069 0.804788499052156  1.0000   
         H         H         1.0       0.10000580877914023           0.4267240437154103 0.8150090559584869 1.0000   
         H         H         1.0       0.06039601608770373           0.4053580242792247 0.8241918493479712 1.0000   
         H         H         1.0       0.10294310948342056           0.388406643551816  0.8235073203110873 1.0000   
         H         H         1.0       0.09325673683365965           0.3805026715711676 0.7798920464651787 1.0000   
         C         C         1.0       0.9915182175129168  0.363941043934917   0.5499743344509828 1.0000   
         C         C         1.0       0.9769556840328212  0.3297969445775838  0.5570195967034993 1.0000   
         H         H         1.0       0.9729895618700024  0.3646984659891698  0.535685038839913  1.0000   
         H         H         1.0       0.9847709282750474  0.34891578891514446           0.07504299583815954          1.0000   
         H         H         1.0       0.9707795032246069  0.3244206020508056  0.5871926464535391 1.0000   
         H         H         1.0       0.9517175901326285  0.29782002925414713           0.09457043935763165          1.0000   
         C         C         1.0       0.9011105350338563  0.49866156897124386           0.6167512669148401 1.0000   
         C         C         1.0       0.8915992077727987  0.5169518699803367  0.6400849751748396 1.0000   
         H         H         1.0       0.9003895234845891  0.5046756144710423  0.586369302841997  1.0000   
         H         H         1.0       0.8820337676722037  0.4734529004799973  0.6174381752605008 1.0000   
         H         H         1.0       0.8714301366895754  0.5151646296882769  0.624139356438077  1.0000   
         H         H         1.0       0.8836718303706292  0.5080787771272148  0.6683331260586065 1.0000   
         C         C         1.0       0.21250612427274634           0.516447322086161  0.6304725815474743 1.0000   
         C         C         1.0       0.1978197460562462  0.5356730252343517  0.6214515895839204 1.0000   
         H         H         1.0       0.23658162496548826           0.5304299418717046 0.6158707146905937 1.0000   
         H         H         1.0       0.19731999436382258           0.49515299500065907          0.6163994478836516 1.0000   
         H         H         1.0       0.2013264044296788  0.539079187440197   0.5914153257812065 1.0000   
         H         H         1.0       0.214946202355143   0.5583825773881987  0.6345104173756503 1.0000   
         C         C         1.0       0.12952404404021273           0.6683032230539593 0.6060321019154061 1.0000   
         C         C         1.0       0.15142749223419108           0.6361478964511506 0.059639023163014615         1.0000   
         H         H         1.0       0.11919110948004623           0.6794713619815727 0.5935165958948083 1.0000   
         H         H         1.0       0.14360491729179864           0.6827955316329433 0.6307999253180098 1.0000   
         H         H         1.0       0.1390397643603991  0.6106915196987588  0.06241082158732669          1.0000   
         H         H         1.0       0.1771834522997397  0.6448169446220501  0.06187153810395185          1.0000   
         C         C         1.0       0.9965765275796227  0.5755955330511252  0.8166549012031864 1.0000   
         C         C         1.0       0.005189484502664765          0.6065636467147    0.8341082973809261 1.0000   
         H         H         1.0       0.9696031606135104  0.5598447494340755  0.816153946909515  1.0000   
         H         H         1.0       0.0032531795096326552         0.5632697153369125 0.8355474215411057 1.0000   
         H         H         1.0       0.005008910654821674          0.6213686475117083 0.8142015821923634 1.0000   
         H         H         1.0       0.9845481398483252  0.5996968604635299  0.8555581808026637 1.0000   
         C         C         1.0       0.9804990187490482  0.07065584613569363           0.08150027900888235          1.0000   
         C         C         1.0       0.008893460941992837          0.09583332420299552          0.05835566096421907          1.0000   
         H         H         1.0       0.9916219598776088  0.06823025330287824           0.10725710518756082          1.0000   
         H         H         1.0       0.9693838113720822  0.05011602813814142           0.06572091655477852          1.0000   
         H         H         1.0       0.032137091160170383          0.09692192039616077          0.06271737854928183          1.0000   
         H         H         1.0       0.002348250279846198          0.09024701209092525          0.02876443554547059          1.0000   
         C         C         1.0       0.8961877696139556  0.16407153892208817           0.6883139576383088 1.0000   
         C         C         1.0       0.8712322356553648  0.16888467108259808           0.6688352152444157 1.0000   
         H         H         1.0       0.8905202170233794  0.16056665485995725           0.7185718869634335 1.0000   
         H         H         1.0       0.9212035311508533  0.18512012836410635           0.6841662291034946 1.0000   
         H         H         1.0       0.8504561045812411  0.1461015918805009  0.6595997136739592 1.0000   
         H         H         1.0       0.8820895910487209  0.179984165688303   0.641906155014883  1.0000   
         C         C         1.0       0.7344200105883762  0.8323759861896417  0.15222819051772696          1.0000   
         C         C         1.0       0.7538256266200513  0.8092544654964542  0.6532224287531975 1.0000   
         H         H         1.0       0.7104173695923508  0.814973143854753   0.16280179977341835          1.0000   
         H         H         1.0       0.7334715367059098  0.8305819509830722  0.12143684366976815          1.0000   
         H         H         1.0       0.7407920516289779  0.7894899121753196  0.6696647245849814 1.0000   
         H         H         1.0       0.772149036581642   0.8270746897939216  0.6709946708135981 1.0000   
         C         C         1.0       0.728533780015582   0.9803995730617648  0.009707238525255235         1.0000   
         C         C         1.0       0.7635145315238672  0.007133758717315697         0.9939980010181914 1.0000   
         H         H         1.0       0.73289036352747    0.9817041240283879  0.040648455749618506         1.0000   
         H         H         1.0       0.7251698582910031  0.9589941191728439  0.0006893314656220006        1.0000   
         H         H         1.0       0.7703737523626832  0.9979946246783278  0.9704056619869486 1.0000   
         H         H         1.0       0.7588612675850587  0.022223512501335474         0.977513181684046  1.0000   
         C         C         1.0       0.5227448970004268  0.8999623584518407  0.8984321425334969 1.0000   
         C         C         1.0       0.5249041866049721  0.8782102716179785  0.8715826952697007 1.0000   
         H         H         1.0       0.5086064684921909  0.9071459750905518  0.8836448488929914 1.0000   
         H         H         1.0       0.5073083299445749  0.8853119341872485  0.9201949345768142 1.0000   
         H         H         1.0       0.5301487557880463  0.8874530249340422  0.8421771609592519 1.0000   
         H         H         1.0       0.5002334835377741  0.8555111145255029  0.8692709740821675 1.0000   
         C         C         1.0       0.8131699302215535  0.8889145414615665  0.9331245470071498 1.0000   
         C         C         1.0       0.7890845619851337  0.898063503916999   0.9413831220636816 1.0000   
         H         H         1.0       0.8376121827221207  0.9100450290328067  0.9306256337762727 1.0000   
         H         H         1.0       0.8073384923786412  0.8777654937881003  0.9051143096858483 1.0000   
         H         H         1.0       0.7958512377469183  0.9105500125941598  0.9687020450570318 1.0000   
         H         H         1.0       0.7949315575049244  0.9168445712997421  0.9239341081557688 1.0000   
         C         C         1.0       0.7563835039036618  0.9763715896452883  0.8772250057691953 1.0000   
         C         C         1.0       0.7768624192109225  0.9692907374246756  0.8525799528091521 1.0000   
         H         H         1.0       0.754295790441645   0.9909877630524985  0.8609014230998665 1.0000   
         H         H         1.0       0.7690721530108363  0.9896552607320971  0.9046764175119038 1.0000   
         H         H         1.0       0.7828402178389784  0.955822033370976   0.8681072640727487 1.0000   
         H         H         1.0       0.8003238087029381  0.9899799678143937  0.8528577096152904 1.0000   
         C         C         1.0       0.6449520781226356  0.9342695275862178  0.1132545470393247 1.0000   
         C         C         1.0       0.6216494349654982  0.9031635826656751  0.09152921064104236          1.0000   
         H         H         1.0       0.6533408612354648  0.9550485310003448  0.09586135299502119          1.0000   
         H         H         1.0       0.6303284366840816  0.9369165782672029  0.1337610263597775 1.0000   
         H         H         1.0       0.5952090406185636  0.8955131038641415  0.09191443192488302          1.0000   
         H         H         1.0       0.6188431460377131  0.8861961303288793  0.10982799049490533          1.0000   
         C         C         1.0       0.4405273959872626  0.6362049609299283  0.8539731944469374 1.0000   
         C         C         1.0       0.465521687224995   0.6435972155092156  0.88352953089157   1.0000   
         H         H         1.0       0.44729239026898737           0.6324084563174897 0.8259728868029149 1.0000   
         H         H         1.0       0.4395743528969701  0.6562159070562161  0.8504724407954263 1.0000   
         H         H         1.0       0.4654281370764898  0.6589601796199775  0.9036434227130108 1.0000   
         H         H         1.0       0.4898254947837668  0.6569182747133384  0.8719999064899117 1.0000   
         C         C         1.0       0.33845504941746557           0.4393372490441697 0.97019931645879   1.0000   
         C         C         1.0       0.3322652523874825  0.4078526587006799  0.9573160346521322 1.0000   
         H         H         1.0       0.33253962129094755           0.4377630253081081 0.0003192102338822611        1.0000   
         H         H         1.0       0.3222087941904177  0.44358955347013507           0.954073814421004  1.0000   
         H         H         1.0       0.34492719236915287           0.4083336387103856 0.9327921192310754 1.0000   
         H         H         1.0       0.30614502895272433           0.3934570799006613 0.9500303570239056 1.0000   
         C         C         1.0       0.6561940179834379  0.7180944210689343  0.09398527322698702          1.0000   
         C         C         1.0       0.6355736202274038  0.7269251001157142  0.07368151879488427          1.0000   
         H         H         1.0       0.6806989398952594  0.7328916980631853  0.08222199407806308          1.0000   
         H         H         1.0       0.658835675346606   0.7265775827753943  0.12450340474593258          1.0000   
         H         H         1.0       0.6362744002146398  0.7448924910908904  0.08878527204677411          1.0000   
         H         H         1.0       0.6086283266016139  0.7079234663212343  0.07517555545725307          1.0000   
         C         C         1.0       0.574163663104859   0.5115030040863308  0.8934852793361302 1.0000   
         C         C         1.0       0.5668262973660688  0.5329721854193742  0.8752975220763781 1.0000   
         H         H         1.0       0.6002284934265661  0.5266444107901322  0.9042707522364489 1.0000   
         H         H         1.0       0.5605375333396058  0.5003047144792195  0.9203887591193939 1.0000   
         H         H         1.0       0.558153178329215   0.5262551546599523  0.8449472206791183 1.0000   
         H         H         1.0       0.5892804650848467  0.5552859723470911  0.8709970947649803 1.0000   
         C         C         1.0       0.8802613725183156  0.7612164068607578  0.6454981715340619 1.0000   
         C         C         1.0       0.8490304785524708  0.7392564229111384  0.622731935123575  1.0000   
         H         H         1.0       0.8740030951611905  0.774763230813326   0.6637581608570036 1.0000   
         H         H         1.0       0.9005049090970284  0.7768969852558936  0.6283953605285456 1.0000   
         H         H         1.0       0.8508159684790663  0.7215501313223149  0.6128970818111992 1.0000   
         H         H         1.0       0.8470429674104869  0.7512456159902198  0.5975053494285972 1.0000   
         C         C         1.0       0.685797655429054   0.645347333039175   0.5164662121198134 1.0000   
         C         C         1.0       0.7163337815608245  0.6540215202322955  0.493807710753865  1.0000   
         H         H         1.0       0.6938558171266759  0.6622984800710137  0.9981656265478456 1.0000   
         H         H         1.0       0.6973795049444353  0.6342607752916519  0.004083210022553407         1.0000   
         H         H         1.0       0.7416533604163436  0.6783766581510158  0.960376724003015  1.0000   
         H         H         1.0       0.7239305744780965  0.6392925053189757  0.5045479231841541 1.0000   
         C         C         1.0       0.7025495177380808  0.4782141424742061  0.7298851113621777 1.0000   
         C         C         1.0       0.6710201084937969  0.4453576136018541  0.7290694291657905 1.0000   
         H         H         1.0       0.7179312519560624  0.47927093782003855           0.7516102831201324 1.0000   
         H         H         1.0       0.7140619560411946  0.48150306664431297           0.7020156653023213 1.0000   
         H         H         1.0       0.6776762850584886  0.4299372117367609  0.7353000392704611 1.0000   
         H         H         1.0       0.6598879021509206  0.43664741516734396           0.7007956171625022 1.0000   
         C         C         1.0       0.6621429786357353  0.7260228522280687  0.7905623635124435 1.0000   
         C         C         1.0       0.653207941014906   0.6931779231183592  0.7902139018082796 1.0000   
         H         H         1.0       0.6868866889766155  0.7413701700034189  0.780308763665274  1.0000   
         H         H         1.0       0.6495080165661501  0.7286456790749687  0.7673962008916176 1.0000   
         H         H         1.0       0.6276531341653959  0.6766354935458475  0.7874902029343613 1.0000   
         H         H         1.0       0.6609045800468103  0.6901313578700161  0.8187331753281688 1.0000   
         C         C         1.0       0.5006664028473637  0.502261454823683   0.19423115151116344          1.0000   
         C         C         1.0       0.5211638963347714  0.49000701387144097           0.722958196568174  1.0000   
         H         H         1.0       0.475179950612152   0.4968780688583575  0.19567845195635458          1.0000   
         H         H         1.0       0.4980344256061513  0.4803193636498647  0.19172203519435316          1.0000   
         H         H         1.0       0.5142143083992777  0.4683826564608586  0.710349839126868  1.0000   
         H         H         1.0       0.5058568600239962  0.4818188511555005  0.7496916394917024 1.0000   
         C         C         1.0       0.6714539132261031  0.5821586033231824  0.9386270728298651 1.0000   
         C         C         1.0       0.6527250746851437  0.5584736969404281  0.9686375247212893 1.0000   
         H         H         1.0       0.6966882501739169  0.590224086825569   0.9454002653099257 1.0000   
         H         H         1.0       0.665515750645064   0.5996965206978511  0.9405583581446308 1.0000   
         H         H         1.0       0.6707587692046548  0.5575861702356956  0.9852098721643173 1.0000   
         H         H         1.0       0.6349523728420571  0.5355108378852843  0.9557444216459221 1.0000

