data_0
_chemical_formula_structural 
                                        C6H4C38H24C6H4C38H24C6H4C38H24C6H4C38H24C6H4C38H24C6H4C38H24C6H4C38H24C6H4C38H24C6H4C38H24C6H4C38H24C6H4C38H24C6H4C38H24C6H4C38H24C6H4C38H24C6H4C38H24C6H4C38H24C6H4C38H24C6H4C38H24C2H4C2H4C2H4C2H4C2H4C2H4C2H4C2H4C2H4C2H4C2H4C2H4C2H4C2H4C2H4C2H4C2H4C2H4C2H4C2H4C2H4C2H4C2H4C2H4C2H4C2H4C2H4C2H4C2H4C2H4C2H4C2H4C2H4C2H4C2H4C2H4C2H4C2H4C2H4C2H4C2H4C2H4C2H4C2H4C2H4C2H4C2H4C2H4C2H4C2H4C2H4C2H4C2H4C2H4C6H4C38H24C6H4C38H24C6H4C38H24C6H4C38H24C6H4C38H24C6H4C38H24C6H4C38H24C6H4C38H24C6H4C38H24C6H4C38H24C6H4C38H24C6H4C38H24C6H4C38H24C6H4C38H24C6H4C38H24C6H4C38H24C6H4C38H24C6H4C38H24C2H4C2H4C2H4C2H4C2H4C2H4C2H4C2H4C2H4C2H4C2H4C2H4C2H4C2H4C2H4C2H4C2H4C2H4C2H4C2H4C2H4C2H4C2H4C2H4C2H4C2H4C2H4C2H4C2H4C2H4C2H4C2H4C2H4C2H4C2H4C2H4C2H4C2H4C2H4C2H4C2H4C2H4C2H4C2H4C2H4C2H4C2H4C2H4C2H4C2H4C2H4C2H4C2H4C2H4
_chemical_formula_sum                   'C1800 H1440'
_cell_length_a                          54.71077312878906
_cell_length_b                          56.503329037296
_cell_length_c                          38.618216546778754
_cell_angle_alpha                       90.52628143840784
_cell_angle_beta                        90.23670326286994
_cell_angle_gamma                       122.82206507941231
_space_group_name_H-M_alt               'P 1'
_space_group_IT_number                  1
loop_
  _space_group_symop_operation_xyz
         'x, y, z' 
loop_
  _atom_site_type_symbol
  _atom_site_label
  _atom_site_symmetry_multiplicity
  _atom_site_fract_x
  _atom_site_fract_y
  _atom_site_fract_z
  _atom_site_occupancy
         C         C         1.0       0.6295524045477479  0.4596760492740872  0.1840401154798296 1.0000   
         C         C         1.0       0.6105971632268058  0.46229191309642254           0.16221821335201914          1.0000   
         C         C         1.0       0.5961406672828021  0.474112061939862   0.1740912986629132 1.0000   
         C         C         1.0       0.6012956955925667  0.48638080242565396           0.20753008210803417          1.0000   
         C         C         1.0       0.6247742019964431  0.4891510842354531  0.22661178178898397          1.0000   
         C         C         1.0       0.6368523199691761  0.4746190084871443  0.21558719146603597          1.0000   
         H         H         1.0       0.6062269160880182  0.45448752056424885           0.13574872991050663          1.0000   
         H         H         1.0       0.5809607004929355  0.47153707519004256           0.1550442978414951 1.0000   
         H         H         1.0       0.6314571226083137  0.5010464439666569  0.25092045063175755          1.0000   
         H         H         1.0       0.6491839036833986  0.4726470661557521  0.23525756407865878          1.0000   
         C         C         1.0       0.5693420961758284  0.4747671767542068  0.27499411269667295          1.0000   
         C         C         1.0       0.5822025794994112  0.5010025267575977  0.26046064381244116          1.0000   
         C         C         1.0       0.5898360248661795  0.5225663926267398  0.2836539986245496 1.0000   
         C         C         1.0       0.5934139385062412  0.5199399192748314  0.3181104176195745 1.0000   
         C         C         1.0       0.5832470109452161  0.49393753302630133           0.3316598936708529 1.0000   
         C         C         1.0       0.5708978338772132  0.47134584646683525           0.30936829325368864          1.0000   
         C         C         1.0       0.5865142008080961  0.5022435235575176  0.21963438480081016          1.0000   
         C         C         1.0       0.5543996619218023  0.4931100508773533  0.20428012478419888          1.0000   
         C         C         1.0       0.5480018840586559  0.5139865537281768  0.20140494250130955          1.0000   
         C         C         1.0       0.5275757661907059  0.5108648517038147  0.17690966081646944          1.0000   
         C         C         1.0       0.5122439210789557  0.48724205665525855           0.15652924332481272          1.0000   
         C         C         1.0       0.5172639569958088  0.4658527537557801  0.16098842049555084          1.0000   
         C         C         1.0       0.5362997879849039  0.46781046135328586           0.18674630812899187          1.0000   
         C         C         1.0       0.636379520025449   0.5525427636194415  0.22381707263803943          1.0000   
         C         C         1.0       0.6551126523004918  0.5770414849787628  0.2107104743540754 1.0000   
         C         C         1.0       0.6548954842398679  0.5850249864093631  0.17731621332564962          1.0000   
         C         C         1.0       0.6302786113504814  0.5656139797269321  0.15710003134183423          1.0000   
         C         C         1.0       0.6088874359061643  0.540288688183364   0.17135107380554443          1.0000   
         C         C         1.0       0.6117995749002697  0.5320781647049119  0.20439142131584598          1.0000   
         C         C         1.0       0.6774214427692677  0.6154953620605389  0.1603013652707405 1.0000   
         C         C         1.0       0.6359990079837393  0.6576640634282049  0.20404205635914874          1.0000   
         C         C         1.0       0.6595280909556803  0.6603641601162058  0.2214883168868817 1.0000   
         C         C         1.0       0.6721213646508123  0.6465523821440486  0.20741688446726628          1.0000   
         C         C         1.0       0.6625240783732611  0.6320415911294823  0.17567602041461872          1.0000   
         C         C         1.0       0.6406244933856753  0.6327867756023138  0.1571212271504974 1.0000   
         C         C         1.0       0.6271338548100337  0.6451091474508639  0.17216259703764067          1.0000   
         C         C         1.0       0.6831048510909145  0.6173365310472694  0.11990409166149314          1.0000   
         C         C         1.0       0.6862275144887283  0.5966508340289588  0.10335373461526155          1.0000   
         C         C         1.0       0.6937682729007908  0.5991869869806453  0.06956669303248061          1.0000   
         C         C         1.0       0.700327540149125   0.6226670659189342  0.05198470397152222          1.0000   
         C         C         1.0       0.6954222337395947  0.6427698845054794  0.067138332494691  1.0000   
         C         C         1.0       0.6854626204501566  0.6386119949005007  0.09935847010761432          1.0000   
         C         C         1.0       0.7292703435697244  0.6577480270518232  0.17041086571212036          1.0000   
         C         C         1.0       0.7549891268899901  0.6690658219111689  0.1876894589284323 1.0000   
         C         C         1.0       0.7652080840608245  0.6533091253403377  0.19920391421061162          1.0000   
         C         C         1.0       0.7470648041599663  0.6240877450030936  0.19596862204233373          1.0000   
         C         C         1.0       0.7196834481591019  0.6116488691775154  0.18232125139418534          1.0000   
         C         C         1.0       0.7097260185999422  0.6286075033912023  0.17242174546380368          1.0000   
         H         H         1.0       0.5599292417273524  0.45659130167993844           0.2585407397043951 1.0000   
         H         H         1.0       0.600244144461489   0.5425843306451895  0.273328581942802  1.0000   
         H         H         1.0       0.6051752727661539  0.5383748093617118  0.33508031383475556          1.0000   
         H         H         1.0       0.5601462596334545  0.4504784872693081  0.32024521257118804          1.0000   
         H         H         1.0       0.5608416369988495  0.5346794922874225  0.21741592387400496          1.0000   
         H         H         1.0       0.5232669346776333  0.5277153839864471  0.17754978828353363          1.0000   
         H         H         1.0       0.5073215332498798  0.44701212359091935           0.14370113654960318          1.0000   
         H         H         1.0       0.5383308341765294  0.45071486986923043           0.18889025979998658          1.0000   
         H         H         1.0       0.6406901703966074  0.5498408495635055  0.2503379144334569 1.0000   
         H         H         1.0       0.6739524314579349  0.5913939604379269  0.2273674260954349 1.0000   
         H         H         1.0       0.6287840730193837  0.5715165082792115  0.1308150099253834 1.0000   
         H         H         1.0       0.5885314887876157  0.5239500009359882  0.1565071980560096 1.0000   
         H         H         1.0       0.667704933229122   0.6698992126371033  0.2455682676059157 1.0000   
         H         H         1.0       0.689772146136131   0.6469826664484817  0.21976908720858931          1.0000   
         H         H         1.0       0.634036176566088   0.6234706284978956  0.12984804262897684          1.0000   
         H         H         1.0       0.609758468777767   0.6445247479891295  0.16019917878054848          1.0000   
         H         H         1.0       0.6859484554081867  0.5815587504523134  0.11907679785729178          1.0000   
         H         H         1.0       0.6992390965079939  0.5849098922586886  0.061311131176345283         1.0000   
         H         H         1.0       0.699442174668939   0.6611888988858807  0.055063699135962985         1.0000   
         H         H         1.0       0.6851089228572181  0.6562270543965041  0.11109696958123481          1.0000   
         H         H         1.0       0.7223710117731095  0.6711805844058185  0.16151475765944992          1.0000   
         H         H         1.0       0.7685944348449826  0.6918087483462637  0.1875348757019417 1.0000   
         H         H         1.0       0.7542534626933394  0.6111935660301396  0.2065749191467399 1.0000   
         H         H         1.0       0.7064778076532133  0.5893922852065147  0.18086548773144895          1.0000   
         C         C         1.0       0.48572964871996366           0.5096804396589143 0.5698453257607903 1.0000   
         C         C         1.0       0.495386680717569   0.5357853438777458  0.557038981827534  1.0000   
         C         C         1.0       0.5112483579609861  0.5464304910288734  0.5270982589633993 1.0000   
         C         C         1.0       0.5132460331224268  0.5287275425619964  0.5064443390734003 1.0000   
         C         C         1.0       0.5025348256697362  0.5014869198364373  0.5182634536231304 1.0000   
         C         C         1.0       0.49045503940032814           0.4926301929899445 0.5500439819246664 1.0000   
         H         H         1.0       0.49294078322739404           0.5517944609220958 0.5708452603795914 1.0000   
         H         H         1.0       0.517791907163446   0.5674728829435013  0.5190431384581755 1.0000   
         H         H         1.0       0.5022061664535032  0.4855213051128267  0.5005988397627289 1.0000   
         H         H         1.0       0.48209094505370004           0.4707683268688051 0.5563471072929412 1.0000   
         C         C         1.0       0.5549793445031979  0.5185928206787813  0.4623528602631934 1.0000   
         C         C         1.0       0.5321956514333038  0.5192458947865435  0.44723005866100707          1.0000   
         C         C         1.0       0.5261384207953347  0.5118325085377151  0.41255048655759446          1.0000   
         C         C         1.0       0.5393039394811615  0.5017483088873651  0.39448435248421426          1.0000   
         C         C         1.0       0.5590109241999984  0.4971080117956465  0.4107999801491526 1.0000   
         C         C         1.0       0.5665672212156166  0.5053368972361996  0.4454837678382841 1.0000   
         C         C         1.0       0.5186932264895185  0.5344579580104645  0.4650483725851077 1.0000   
         C         C         1.0       0.544725842483961   0.566830100864372   0.4583088187480333 1.0000   
         C         C         1.0       0.5467347731370097  0.5798192835595334  0.4270366880371992 1.0000   
         C         C         1.0       0.5690617424233662  0.6058684859008048  0.41862457576642353          1.0000   
         C         C         1.0       0.5931379584896989  0.6195061677047113  0.44107833639107036          1.0000   
         C         C         1.0       0.5918037288587529  0.6080503289386977  0.47354452560632426          1.0000   
         C         C         1.0       0.5677523051249995  0.5813911880406434  0.4805578994972015 1.0000   
         C         C         1.0       0.4663116479072537  0.49524581674968876           0.4475916833856812 1.0000   
         C         C         1.0       0.4409761128499458  0.48712406362009103           0.4321586932899028 1.0000   
         C         C         1.0       0.4333082744476684  0.5060836617144527  0.4189936282680381 1.0000   
         C         C         1.0       0.45328888764738373           0.5343703910598864 0.42671205422163466          1.0000   
         C         C         1.0       0.479412553996845   0.543251349859185   0.4438596562898331 1.0000   
         C         C         1.0       0.4869810797279932  0.5245716823354475  0.4524323323908451 1.0000   
         C         C         1.0       0.40395866363567806           0.4919909366281739 0.3963749562382826 1.0000   
         C         C         1.0       0.43903026808622675           0.46727021503905547          0.31115430462488075          1.0000   
         C         C         1.0       0.4194361420684423  0.4466885084779852  0.3323720433054177 1.0000   
         C         C         1.0       0.4083334723726674  0.4533661505702043  0.35980790151519093          1.0000   
         C         C         1.0       0.41389773587427053           0.48010041857588204          0.3639305566847379 1.0000   
         C         C         1.0       0.43213419121715835           0.5003123498101405 0.3401906355363043 1.0000   
         C         C         1.0       0.4441858232208905  0.4931344180619537  0.31367658578002905          1.0000   
         C         C         1.0       0.39388546015512427           0.5133197956982003 0.3866371302219575 1.0000   
         C         C         1.0       0.3963382778448584  0.5330616122124745  0.4107090405484286 1.0000   
         C         C         1.0       0.3929703906854939  0.5545430933574048  0.4001101447979105 1.0000   
         C         C         1.0       0.3844752371746646  0.553903923418475   0.36723641491624887          1.0000   
         C         C         1.0       0.37937213418779353           0.5333150659427089 0.3442786323899191 1.0000   
         C         C         1.0       0.3833176690842965  0.5125160051931085  0.35378473841669295          1.0000   
         C         C         1.0       0.3513564372173147  0.4475438187111788  0.3987354029312652 1.0000   
         C         C         1.0       0.33049274463560346           0.4231551697433966 0.41616457412763824          1.0000   
         C         C         1.0       0.33149744234052364           0.42026012341116187          0.451277521600643  1.0000   
         C         C         1.0       0.35495190953639416           0.44213581174195715          0.4691957393780696 1.0000   
         C         C         1.0       0.3766907057674606  0.4657053624950257  0.4539119387347228 1.0000   
         C         C         1.0       0.3758681413737795  0.46700543098254416           0.4173961519426099 1.0000   
         H         H         1.0       0.5661369964356379  0.527634699106251   0.48775931948723483          1.0000   
         H         H         1.0       0.5103063179409383  0.5150522596850848  0.3978780354994515 1.0000   
         H         H         1.0       0.5314284033531874  0.49336584612843026           0.36914881673895583          1.0000   
         H         H         1.0       0.5805488513198696  0.5010675809851911  0.45725905274503004          1.0000   
         H         H         1.0       0.5298491346037959  0.5670157054421658  0.4074508620989366 1.0000   
         H         H         1.0       0.5680898665666337  0.6122858454972285  0.3936757290590891 1.0000   
         H         H         1.0       0.6103765942358086  0.6189334234107908  0.49057898643759046          1.0000   
         H         H         1.0       0.5677367929499824  0.572096372150684   0.5047793118769205 1.0000   
         H         H         1.0       0.4716545304346555  0.48004694511641227           0.45123515428244004          1.0000   
         H         H         1.0       0.4283918628774061  0.46439538401420943           0.4261449768987107 1.0000   
         H         H         1.0       0.4503909628714338  0.5515087306125449  0.4169883284430625 1.0000   
         H         H         1.0       0.49332215598285983           0.5653926390237768 0.4478348608933616 1.0000   
         H         H         1.0       0.4143038063781901  0.4264213568062122  0.3279010696077481 1.0000   
         H         H         1.0       0.395690938104338   0.4371968139326209  0.3775268269252213 1.0000   
         H         H         1.0       0.4415786432447099  0.5229472742944014  0.34438210796163143          1.0000   
         H         H         1.0       0.459322238285975   0.5111877201224398  0.2978526413205461 1.0000   
         H         H         1.0       0.40168707526514547           0.5319101271873036 0.4371322925351897 1.0000   
         H         H         1.0       0.39615848769571826           0.5693333122385414 0.41907590001438266          1.0000   
         H         H         1.0       0.37295927770467185           0.5323078433823811 0.31688249238162103          1.0000   
         H         H         1.0       0.3776564641902691  0.49532203604114644           0.3371376661451365 1.0000   
         H         H         1.0       0.35108325210788327           0.4474176860492209 0.37074457074741973          1.0000   
         H         H         1.0       0.31379147968771154           0.4079977416526122 0.3981598348612774 1.0000   
         H         H         1.0       0.3562309105049876  0.44020187783051923           0.4973584399101957 1.0000   
         H         H         1.0       0.3935968750122933  0.481861250989807   0.4699312769031449 1.0000   
         C         C         1.0       0.5554088154857635  0.8294457593240719  0.32772773324549737          1.0000   
         C         C         1.0       0.5779233966249726  0.8388594835020329  0.3035858609226151 1.0000   
         C         C         1.0       0.6042031559978358  0.8430319095705853  0.31244510546727106          1.0000   
         C         C         1.0       0.6102248344613292  0.8416832568637127  0.346906678734157  1.0000   
         C         C         1.0       0.5868856899004894  0.8284152877327652  0.36915402555921606          1.0000   
         C         C         1.0       0.5603420436623365  0.821801036118305   0.3598781527137218 1.0000   
         H         H         1.0       0.5727609030379337  0.8409880621469827  0.2763626137759235 1.0000   
         H         H         1.0       0.6188806411366812  0.8519217380212956  0.29212788108500404          1.0000   
         H         H         1.0       0.5898370754249869  0.8227455477434612  0.3953289846508825 1.0000   
         H         H         1.0       0.5440679443316345  0.8177005959071451  0.38089984202759475          1.0000   
         C         C         1.0       0.6310735613716949  0.8817796300908783  0.4067889089624193 1.0000   
         C         C         1.0       0.6461961147924992  0.8686698645660562  0.4011220044057876 1.0000   
         C         C         1.0       0.6596072874593979  0.8653588519337085  0.42943913449279564          1.0000   
         C         C         1.0       0.6546408196493664  0.8700439227229367  0.4630655198268143 1.0000   
         C         C         1.0       0.6346458878838471  0.8765967344512038  0.46777228828350725          1.0000   
         C         C         1.0       0.6231174774275539  0.882916941565216   0.4400350641588311 1.0000   
         C         C         1.0       0.6438454935043767  0.8551542417155148  0.3628877120496921 1.0000   
         C         C         1.0       0.6685417839436839  0.8830228791204136  0.3433729014594407 1.0000   
         C         C         1.0       0.6971402908449325  0.8928708460579292  0.3504984686817524 1.0000   
         C         C         1.0       0.7201046739116101  0.9168230959164301  0.3351120059092903 1.0000   
         C         C         1.0       0.714136801011784   0.9337280153381412  0.3143809273368772 1.0000   
         C         C         1.0       0.6854990919861231  0.92454211212572    0.3070033844190299 1.0000   
         C         C         1.0       0.6636891456253573  0.9015362806603037  0.3238222929983252 1.0000   
         C         C         1.0       0.6405565462105012  0.8097371822557395  0.38411153097982187          1.0000   
         C         C         1.0       0.6474494629402895  0.789976739031679   0.381592768486433  1.0000   
         C         C         1.0       0.6570613124664966  0.7850903261357878  0.3495722747413311 1.0000   
         C         C         1.0       0.6592393751449279  0.8018271891736257  0.32292143469397977          1.0000   
         C         C         1.0       0.65660171876386    0.8245733805369392  0.32662428807513366          1.0000   
         C         C         1.0       0.6486665980673756  0.8303239307993412  0.3583909643262184 1.0000   
         C         C         1.0       0.6706256465069941  0.7659915810896363  0.3464217584743337 1.0000   
         C         C         1.0       0.7609855012076403  0.8351313781290636  0.3588654318827216 1.0000   
         C         C         1.0       0.7429538570095608  0.8247652752534539  0.38687151898046174          1.0000   
         C         C         1.0       0.7153167778756163  0.8019164791477055  0.3822710590510445 1.0000   
         C         C         1.0       0.7034124095318105  0.7913661077302835  0.35092837675835353          1.0000   
         C         C         1.0       0.7209183442381959  0.8043128569028408  0.32219606415213603          1.0000   
         C         C         1.0       0.7490066084416394  0.8255133374366126  0.32636431677647704          1.0000   
         C         C         1.0       0.6598595768700737  0.7478366268818223  0.31242446497307486          1.0000   
         C         C         1.0       0.6323210735936079  0.7384761760017088  0.2982308238227042 1.0000   
         C         C         1.0       0.6235744316909234  0.723698965520111   0.26727312387144647          1.0000   
         C         C         1.0       0.642063875413972   0.7172618109061804  0.25244791839369446          1.0000   
         C         C         1.0       0.6677286398329342  0.7236101712929537  0.26804746739131163          1.0000   
         C         C         1.0       0.6751974812225934  0.7366412132660379  0.2982893856312153 1.0000   
         C         C         1.0       0.6772072827540057  0.7326622774280552  0.3880697880658281 1.0000   
         C         C         1.0       0.6664695443999241  0.7117700806562743  0.41234021587223063          1.0000   
         C         C         1.0       0.6378097219444028  0.6961472829679479  0.42194307183298946          1.0000   
         C         C         1.0       0.6208096174374892  0.7037497727032721  0.4073091453658419 1.0000   
         C         C         1.0       0.6303811260159233  0.7253911652402627  0.3840356445833591 1.0000   
         C         C         1.0       0.6596823139785148  0.740564649348382   0.3728349453349747 1.0000   
         H         H         1.0       0.6194458655788357  0.884364831049929   0.3854650052365138 1.0000   
         H         H         1.0       0.6735914248582782  0.8585308891194032  0.42653393954251084          1.0000   
         H         H         1.0       0.6604051087161922  0.8626446819037261  0.4845689301180127 1.0000   
         H         H         1.0       0.607104406683422   0.8870418684972442  0.4446882383369318 1.0000   
         H         H         1.0       0.7051184383690147  0.8826678883038094  0.36759807779191317          1.0000   
         H         H         1.0       0.7411029724921393  0.922183921136052   0.34303336690532005          1.0000   
         H         H         1.0       0.6807514988150395  0.9391306714063417  0.2955566251658257 1.0000   
         H         H         1.0       0.6423656976571717  0.8972084062231086  0.32197594895096454          1.0000   
         H         H         1.0       0.6347921366350339  0.8136196175632092  0.4080836638213172 1.0000   
         H         H         1.0       0.642339382532462   0.7754223316502565  0.40191945395439554          1.0000   
         H         H         1.0       0.6635960339833264  0.7976745453127577  0.29636173681735917          1.0000   
         H         H         1.0       0.659925978304706   0.8367536281673624  0.30510740243447726          1.0000   
         H         H         1.0       0.7510116434448781  0.8307071175503754  0.41287195352644424          1.0000   
         H         H         1.0       0.7011633727885916  0.7915387161008218  0.4059762279348427 1.0000   
         H         H         1.0       0.7120559883942027  0.797492356080693   0.2965723915638215 1.0000   
         H         H         1.0       0.762639600246858   0.8336895912878587  0.30320674931123653          1.0000   
         H         H         1.0       0.6177571951874123  0.7438935114337347  0.30739034217809635          1.0000   
         H         H         1.0       0.6033739193949241  0.7187184931701037  0.2565713994892574 1.0000   
         H         H         1.0       0.6814862441135914  0.7161088454245316  0.25654066282940086          1.0000   
         H         H         1.0       0.6959526652569737  0.7428218333083363  0.30673534606896036          1.0000   
         H         H         1.0       0.7001631197310496  0.7456600598024896  0.38221394188814195          1.0000   
         H         H         1.0       0.6822086025768147  0.7067546270947583  0.42056048496260084          1.0000   
         H         H         1.0       0.5989831355534458  0.6933819005357726  0.41319675063245787          1.0000   
         H         H         1.0       0.6149162696430076  0.7286080173813229  0.37091723681832556          1.0000   
         C         C         1.0       0.7515136897075304  0.9528430456889508  0.24280041785019585          1.0000   
         C         C         1.0       0.7662199112133629  0.9424988039767414  0.22779459859827614          1.0000   
         C         C         1.0       0.765139308591435   0.937847828802099   0.19251513156133945          1.0000   
         C         C         1.0       0.7460101494490438  0.9412538969863987  0.17090857020192143          1.0000   
         C         C         1.0       0.7301535725320497  0.950455685660261   0.1869600852565095 1.0000   
         C         C         1.0       0.7322823147594553  0.9557358158037783  0.22149885712963757          1.0000   
         H         H         1.0       0.7803564190634374  0.9386169573187515  0.2429818795932351 1.0000   
         H         H         1.0       0.7782603223301128  0.9318763345678798  0.18036987427995316          1.0000   
         H         H         1.0       0.7146527490512039  0.9538391507613115  0.17309403513774396          1.0000   
         H         H         1.0       0.7206588514762143  0.9633604934923256  0.23325452895708468          1.0000   
         C         C         1.0       0.6789800034456865  0.8968772362672783  0.5906992356404616 1.0000   
         C         C         1.0       0.7059745884511042  0.9216666627487252  0.5820747490518432 1.0000   
         C         C         1.0       0.7052733392679362  0.9351291348409221  0.5523750031185305 1.0000   
         C         C         1.0       0.6802405259036353  0.9274297265386275  0.5352081998934746 1.0000   
         C         C         1.0       0.6540515884305452  0.9040943547191655  0.5450162268835623 1.0000   
         C         C         1.0       0.6542702864043328  0.8895810282294835  0.5729003168162095 1.0000   
         C         C         1.0       0.7461702460169624  0.9378044132575798  0.12999000689760282          1.0000   
         C         C         1.0       0.750871954413767   0.9128515791164861  0.11924404976528852          1.0000   
         C         C         1.0       0.7497843254515864  0.9105119463120384  0.5551833752358801 1.0000   
         C         C         1.0       0.7549685890846636  0.8923424729130054  0.5392419537489508 1.0000   
         C         C         1.0       0.7539390976353737  0.8682525236734853  0.09740947602556095          1.0000   
         C         C         1.0       0.7353992247896846  0.8644776440397824  0.1237595434302591 1.0000   
         C         C         1.0       0.7351053951844343  0.8871914867814179  0.1362729341574618 1.0000   
         C         C         1.0       0.766652415209033   0.9903388257153929  0.1232442474962503 1.0000   
         C         C         1.0       0.7838243698539327  0.014699448466812148         0.10272316368380964          1.0000   
         C         C         1.0       0.8083913253605465  0.01865126755633817           0.08643809720634055          1.0000   
         C         C         1.0       0.8185323127791672  0.0024818180319439165        0.0964829596899794 1.0000   
         C         C         1.0       0.8013696161554758  0.9783644141318157  0.1155625194543199 1.0000   
         C         C         1.0       0.7722718480625259  0.9696000852379055  0.12320270296657478          1.0000   
         C         C         1.0       0.8195715700923059  0.03937697980946342           0.544541346463071  1.0000   
         C         C         1.0       0.7571611529216051  0.9891246867006472  0.46180625825116656          1.0000   
         C         C         1.0       0.754708055554456   0.008536975999588803         0.4794941443088192 1.0000   
         C         C         1.0       0.7764252373274602  0.02607786205989049           0.5038027872081688 1.0000   
         C         C         1.0       0.7993655833851503  0.02267615062085304           0.5107384193276272 1.0000   
         C         C         1.0       0.8003002768681687  0.0015947952399471  0.49262460349776394          1.0000   
         C         C         1.0       0.7796596994461816  0.985048755038499   0.4694093217150427 1.0000   
         C         C         1.0       0.8530192944912155  0.05010678946905387           0.5408590937182393 1.0000   
         C         C         1.0       0.8774183862481965  0.053140686444419154         0.05997175681125751          1.0000   
         C         C         1.0       0.9001128779348698  0.06393677940913077           0.5630809775147606 1.0000   
         C         C         1.0       0.9118116912653247  0.06983728113251078           0.5308579538722444 1.0000   
         C         C         1.0       0.8947237258932069  0.0679651727645112  0.5028537913043514 1.0000   
         C         C         1.0       0.865735163846782   0.057404428889797215         0.5083184861713012 1.0000   
         C         C         1.0       0.8295307055037545  0.09011508410572694           0.041331689614303  1.0000   
         C         C         1.0       0.8321648045350746  0.11423607399631157           0.05002588451364343          1.0000   
         C         C         1.0       0.8354057149601195  0.12193265626568227           0.08501818234926982          1.0000   
         C         C         1.0       0.8358377809949349  0.10426695201449299           0.10987951545014174          1.0000   
         C         C         1.0       0.8357091342780734  0.08191269770636564           0.09977459590783666          1.0000   
         C         C         1.0       0.8295465686857121  0.0720205441488337  0.06524872080042676          1.0000   
         H         H         1.0       0.6846529504064728  0.9062755223220907  0.14744313755679817          1.0000   
         H         H         1.0       0.7247499632448444  0.9509502186792566  0.5394221174422834 1.0000   
         H         H         1.0       0.6820335975326478  0.9388119368393943  0.5130671104011748 1.0000   
         H         H         1.0       0.6346452043492679  0.8678445070875854  0.5793716432506498 1.0000   
         H         H         1.0       0.7569463982480852  0.929508975376333   0.5403580477454293 1.0000   
         H         H         1.0       0.7651527447724441  0.8979412583507175  0.5126546157584432 1.0000   
         H         H         1.0       0.7223878559951782  0.8445433849762047  0.13642625671487307          1.0000   
         H         H         1.0       0.7242415127747451  0.8854165164661555  0.16028471068318295          1.0000   
         H         H         1.0       0.7456177572735699  0.9864237479334963  0.12987396576881552          1.0000   
         H         H         1.0       0.7754744730198213  0.0267637288542919  0.09683612110518634          1.0000   
         H         H         1.0       0.8305507827318555  0.9996434017690504  0.5723120237767203 1.0000   
         H         H         1.0       0.8088760897024455  0.9641423747626617  0.1162536286195155 1.0000   
         H         H         1.0       0.7396765240382447  0.013081120015436154         0.47357761521961245          1.0000   
         H         H         1.0       0.7732854966311234  0.04083178679127009           0.5208516826933287 1.0000   
         H         H         1.0       0.8162376704493549  0.9970572527615518  0.501605078655996  1.0000   
         H         H         1.0       0.7787155391678053  0.9689479685814011  0.4560656340703991 1.0000   
         H         H         1.0       0.8774222183578568  0.05289725118033481           0.08786030091097194          1.0000   
         H         H         1.0       0.9180324171896755  0.057638862818721465         0.06429088594939258          1.0000   
         H         H         1.0       0.9051748478167657  0.07478447216318179           0.4781798222220829 1.0000   
         H         H         1.0       0.8513463249397513  0.05377492074291556           0.48793607745309026          1.0000   
         H         H         1.0       0.8247160687020106  0.0837832128169841  0.5090579795758087 1.0000   
         H         H         1.0       0.8369362283773171  0.12984335655052506           0.029435458851778454         1.0000   
         H         H         1.0       0.840839775806477   0.11205932314751543           0.13542021777774058          1.0000   
         H         H         1.0       0.8414708548984414  0.07140713436768727           0.1189482789857373 1.0000   
         C         C         1.0       0.9051213748161177  0.48885306554160934           0.13880781611268314          1.0000   
         C         C         1.0       0.9266802723528086  0.4986057526316148  0.11461249696707539          1.0000   
         C         C         1.0       0.9545841446003595  0.5066080477673474  0.12366526159607928          1.0000   
         C         C         1.0       0.9610381934769547  0.5077860430695874  0.15954697121721845          1.0000   
         C         C         1.0       0.9378397986840992  0.4908436025200022  0.18229717262822373          1.0000   
         C         C         1.0       0.9107010117098302  0.48451269228198274           0.1724231819248205 1.0000   
         H         H         1.0       0.9212228520591287  0.5006006044592053  0.0885373015228412 1.0000   
         H         H         1.0       0.9710979686109297  0.5142467430318067  0.10491726933832   1.0000   
         H         H         1.0       0.9438550539420925  0.4903220154507036  0.20839446673104411          1.0000   
         H         H         1.0       0.8946261725501716  0.47711911660542383           0.19227393198115073          1.0000   
         C         C         1.0       0.9797081112558503  0.5505428487224283  0.21855126665375282          1.0000   
         C         C         1.0       0.9957043685158271  0.538882892192339   0.2134114679790816 1.0000   
         C         C         1.0       0.009485122792095346          0.5365066435061433 0.24178846096909778          1.0000   
         C         C         1.0       0.0026759358998424965         0.5402926110892995 0.27481672778371974          1.0000   
         C         C         1.0       0.9798091750000871  0.5452214535310569  0.27928964251083743          1.0000   
         C         C         1.0       0.9690171236302435  0.5514792657676805  0.2502779312665424 1.0000   
         C         C         1.0       0.993672375050022   0.5261556670320334  0.1746310168217116 1.0000   
         C         C         1.0       0.01507030633087103           0.5536284974961783 0.1538487341645344 1.0000   
         C         C         1.0       0.0440014131068982  0.5679622190288633  0.16182713900127244          1.0000   
         C         C         1.0       0.06453483008491435           0.5931173090476786 0.14563166406890396          1.0000   
         C         C         1.0       0.05524510171796212           0.6028628969643403 0.11860682329828148          1.0000   
         C         C         1.0       0.026246162063565226          0.5899712918938511 0.11258918341855417          1.0000   
         C         C         1.0       0.007545667329297956          0.5667090563204248 0.1295054684087906 1.0000   
         C         C         1.0       0.9941342565597785  0.48277612844576384           0.19979958968988007          1.0000   
         C         C         1.0       0.0029545847089749167         0.4646481081900674 0.19998402080027508          1.0000   
         C         C         1.0       0.018353559036769607          0.46355369694153153          0.17243254760704987          1.0000   
         C         C         1.0       0.026727794281800277          0.48320901830907287          0.1462201015569677 1.0000   
         C         C         1.0       0.01767787983835123           0.5015756840471515 0.14650730615474963          1.0000   
         C         C         1.0       0.0012766007503506316         0.5021215988528034 0.1737453739841401 1.0000   
         C         C         1.0       0.02815235840130903           0.4418607348311765 0.1712740243314468 1.0000   
         C         C         1.0       0.11504537892732003           0.4985180445937076 0.21508326223918953          1.0000   
         C         C         1.0       0.09255613630603947           0.483242826461435  0.23625967743768708          1.0000   
         C         C         1.0       0.06577152108673667           0.4646632408181347 0.2220193694966235 1.0000   
         C         C         1.0       0.06124133680083976           0.4614628572085211 0.1866148767129732 1.0000   
         C         C         1.0       0.08490454395287839           0.478934285612644  0.16554746707073908          1.0000   
         C         C         1.0       0.11121656992517086           0.4970662063895927 0.1795669569457035 1.0000   
         C         C         1.0       0.02516842521186269           0.4276391136221133 0.13413591545359047          1.0000   
         C         C         1.0       0.001761593921260518          0.4207071996195341 0.1135014274798062 1.0000   
         C         C         1.0       0.9951199323140522  0.4053246012590088  0.08321235864145855          1.0000   
         C         C         1.0       0.014490415104801535          0.39787310573985113          0.0723953780666462 1.0000   
         C         C         1.0       0.04014907586251781           0.40688077854922416          0.09042744740462781          1.0000   
         C         C         1.0       0.04451955921479778           0.42051222397934734          0.12291263192039895          1.0000   
         C         C         1.0       0.02074463640221036           0.40017515687491484          0.21263889629983837          1.0000   
         C         C         1.0       0.002997026530975999          0.3743981347725982 0.2265872975985497 1.0000   
         C         C         1.0       0.9725525102207085  0.3599961874980283  0.2216862902004325 1.0000   
         C         C         1.0       0.9620102984263219  0.37351901111590435           0.20316534586917456          1.0000   
         C         C         1.0       0.9805782794095252  0.40085500367722293           0.19102117724425371          1.0000   
         C         C         1.0       0.009790123268893058          0.4137041668602398 0.1942455433650511 1.0000   
         H         H         1.0       0.9697340856660466  0.5531117813901931  0.1960423027282643 1.0000   
         H         H         1.0       0.02475631624084995           0.5297206646966396 0.2395578404765714 1.0000   
         H         H         1.0       0.010838646483373788          0.5349991027014186 0.2961188886962134 1.0000   
         H         H         1.0       0.9505990357592149  0.5556406065350896  0.251562516242615  1.0000   
         H         H         1.0       0.05297949289860902           0.5604866576559706 0.17983095009879083          1.0000   
         H         H         1.0       0.0871642761984927  0.6018351012169254  0.15345746185322998          1.0000   
         H         H         1.0       0.01650358471275104           0.5977170372171565 0.0949237216342693 1.0000   
         H         H         1.0       0.9860151634512858  0.558506605514324   0.12312329412538696          1.0000   
         H         H         1.0       0.9828424627223569  0.4831930272851137  0.22279882306259804          1.0000   
         H         H         1.0       0.9966280868521709  0.45066849538716897           0.22144313390813494          1.0000   
         H         H         1.0       0.03824413744983213           0.48334696972572155          0.12271055440701109          1.0000   
         H         H         1.0       0.023277463507808127          0.5154328262480768 0.1261911062585719 1.0000   
         H         H         1.0       0.09670152748807137           0.4879590583593709 0.26314489165045607          1.0000   
         H         H         1.0       0.04816973660678414           0.45406796608770095          0.23742460539709906          1.0000   
         H         H         1.0       0.08081580150689871           0.4789511938940739 0.13712417308651742          1.0000   
         H         H         1.0       0.12826675514082359           0.5115829822448427 0.1631602948995614 1.0000   
         H         H         1.0       0.9857942500365778  0.42615783780296046           0.12260319007030346          1.0000   
         H         H         1.0       0.9775291797135331  0.4004251668014993  0.0670198413469671 1.0000   
         H         H         1.0       0.05616796773978905           0.4021936276259677 0.08180873157603807          1.0000   
         H         H         1.0       0.06488927942692269           0.4282101308110886 0.13597637258003328          1.0000   
         H         H         1.0       0.043229218992445695          0.4079819030083296 0.21651556993875695          1.0000   
         H         H         1.0       0.01474392103853539           0.3677787075061305 0.2408260347650733 1.0000   
         H         H         1.0       0.9394065237550996  0.36263305340287044           0.19705164624604146          1.0000   
         H         H         1.0       0.9686865088213267  0.40881179726098027           0.1797982024362193 1.0000   
         C         C         1.0       0.05908303487095529           0.6074391332352516 0.5322208687932685 1.0000   
         C         C         1.0       0.0856934181613709  0.6126459119449614  0.5207891640671973 1.0000   
         C         C         1.0       0.09520736125537026           0.621349066763995  0.4882980508271391 1.0000   
         C         C         1.0       0.07551769137369183           0.6193580492600317 0.46204546478806574          1.0000   
         C         C         1.0       0.04976191667429    0.6144822840935973  0.4739141837718107 1.0000   
         C         C         1.0       0.042508025457932336          0.6109136255335442 0.5081155477552306 1.0000   
         H         H         1.0       0.09994922407715161           0.6080445517694854 0.5364184280147738 1.0000   
         H         H         1.0       0.11542226071964479           0.6235519157889601 0.4829447543449613 1.0000   
         H         H         1.0       0.035980365708102924          0.6162967637674053 0.4552643786649873 1.0000   
         H         H         1.0       0.02308865542756422           0.6106727126921684 0.5131945213596769 1.0000   
         C         C         1.0       0.025535814928698712          0.5766658152816141 0.40667107560061055          1.0000   
         C         C         1.0       0.052420664861579695          0.598666843528854  0.3977087028128212 1.0000   
         C         C         1.0       0.05658447780277726           0.6081209029136376 0.3645849682475079 1.0000   
         C         C         1.0       0.03362842489267212           0.5988706987103768 0.34252900187964547          1.0000   
         C         C         1.0       0.005626689453489764          0.5798295570806822 0.3542707413601748 1.0000   
         C         C         1.0       0.0022748547078910164         0.5685190475004558 0.385803647858566  1.0000   
         C         C         1.0       0.0801531836725278  0.6144808187949459  0.42327760234185474          1.0000   
         C         C         1.0       0.09229990010387934           0.5945286001425422 0.41555512118168825          1.0000   
         C         C         1.0       0.10742645768796355           0.5956379809543698 0.3854357691766331 1.0000   
         C         C         1.0       0.1141726432408171  0.5758531618429445  0.3795589508626888 1.0000   
         C         C         1.0       0.10635961144680492           0.5545077621682191 0.4021929063369586 1.0000   
         C         C         1.0       0.09036199494203781           0.5524021133469273 0.43072648399417585          1.0000   
         C         C         1.0       0.08279992161247424           0.5712774947080911 0.43736939854583384          1.0000   
         C         C         1.0       0.08997452659815708           0.6632378240091322 0.40944642381764934          1.0000   
         C         C         1.0       0.10486305119158873           0.6892111810879171 0.395650572760395  1.0000   
         C         C         1.0       0.13366501224451682           0.6998589609518242 0.3846536823680729 1.0000   
         C         C         1.0       0.14754102469837443           0.6861451297528732 0.39578739960955267          1.0000   
         C         C         1.0       0.13195549057627506           0.6608899663312517 0.4110092851457956 1.0000   
         C         C         1.0       0.10251476732354246           0.6475800986587192 0.41415550508802085          1.0000   
         C         C         1.0       0.1482744097283219  0.724825690803097   0.35818864035623676          1.0000   
         C         C         1.0       0.10233606633426179           0.6780174069240005 0.26414280391503137          1.0000   
         C         C         1.0       0.09296234145081443           0.6927582764815876 0.2808221851233678 1.0000   
         C         C         1.0       0.10500184328098983           0.7051580128518558 0.31238136273604683          1.0000   
         C         C         1.0       0.12990539677766477           0.7067633824914062 0.32453936060897076          1.0000   
         C         C         1.0       0.13847045654430032           0.6914210194638348 0.306860557623411  1.0000   
         C         C         1.0       0.1260708472536725  0.6779080564748073  0.27635646900424093          1.0000   
         C         C         1.0       0.1828671029086135  0.743434396679253   0.35284971726839903          1.0000   
         C         C         1.0       0.203069661293141   0.7486308066778439  0.3770927931853549 1.0000   
         C         C         1.0       0.2309895231719133  0.7597290536061831  0.3685644192175194 1.0000   
         C         C         1.0       0.2406093277615564  0.7675468736193558  0.3349070115809989 1.0000   
         C         C         1.0       0.22027861143481056           0.7628552213118265 0.30853257222505726          1.0000   
         C         C         1.0       0.19245136330557105           0.7525197055008072 0.3194410996804827 1.0000   
         C         C         1.0       0.14292323632442083           0.7667599808731983 0.3442884746035863 1.0000   
         C         C         1.0       0.13142377081824871           0.781902926841367  0.35234187676782475          1.0000   
         C         C         1.0       0.12554415387164788           0.7850555986001931 0.38569827763479275          1.0000   
         C         C         1.0       0.13264905463130755           0.772798486642639  0.41263331894861016          1.0000   
         C         C         1.0       0.14305092148480889           0.7567347908765427 0.4031899264512109 1.0000   
         C         C         1.0       0.14529701270520143           0.7503426653838885 0.36861812800647215          1.0000   
         H         H         1.0       0.022736029932073413          0.5647669951688636 0.4319974764801338 1.0000   
         H         H         1.0       0.07708642062046991           0.6249132051521095 0.3559455156909793 1.0000   
         H         H         1.0       0.03408824531487069           0.6077129598129002 0.3176405538875171 1.0000   
         H         H         1.0       0.9810150048351018  0.5520933032941517  0.3966854480805467 1.0000   
         H         H         1.0       0.11068213335369508           0.6094925485147463 0.3663218223001497 1.0000   
         H         H         1.0       0.12520701388234373           0.5751895432810271 0.357633385994365  1.0000   
         H         H         1.0       0.0826143788563889  0.5340122835537361  0.4470291013364096 1.0000   
         H         H         1.0       0.06757460223401264           0.5672439190291377 0.45786791747346284          1.0000   
         H         H         1.0       0.06647834716037211           0.6514600279635894 0.4104051027884174 1.0000   
         H         H         1.0       0.09287633652515907           0.6981750043979348 0.38816412573265757          1.0000   
         H         H         1.0       0.16766769981317184           0.691545665598568  0.3832167487782955 1.0000   
         H         H         1.0       0.14093302233871216           0.6475815804599099 0.4116076008730542 1.0000   
         H         H         1.0       0.07367948968545586           0.6913403005683644 0.27261286527393963          1.0000   
         H         H         1.0       0.09434484158232746           0.7128934115910036 0.3274180686498093 1.0000   
         H         H         1.0       0.15743816666501714           0.6921542802714776 0.3166254435292442 1.0000   
         H         H         1.0       0.1340256456751487  0.6653847279793496  0.2661869387463268 1.0000   
         H         H         1.0       0.19563063343533849           0.7438165917740103 0.4036377104843813 1.0000   
         H         H         1.0       0.24555364246336403           0.7644467535052073 0.39022648040363705          1.0000   
         H         H         1.0       0.22616107493451076           0.7705998547363812 0.2827745565732187 1.0000   
         H         H         1.0       0.1788932443124843  0.748963419582073   0.2966419759947967 1.0000   
         H         H         1.0       0.14397928862387455           0.7640841210984057 0.3164223887773815 1.0000   
         H         H         1.0       0.12281882284422188           0.7884382601177313 0.3309973016249808 1.0000   
         H         H         1.0       0.1281659250892597  0.7744051442372455  0.4381380676664347 1.0000   
         H         H         1.0       0.1448171281825419  0.7454132578637652  0.4234751341605479 1.0000   
         C         C         1.0       0.9510180276711268  0.8540125085963515  0.47034198295732343          1.0000   
         C         C         1.0       0.9391918791535447  0.8326159799282855  0.4464583118071621 1.0000   
         C         C         1.0       0.9219688449976714  0.8063117096563557  0.45659693997576595          1.0000   
         C         C         1.0       0.91496304438602    0.8000613460145967  0.4915127294198913 1.0000   
         C         C         1.0       0.9189712182947686  0.8222928491778418  0.5114140221352989 1.0000   
         C         C         1.0       0.9379256959659495  0.8495360416535883  0.5011535172004496 1.0000   
         H         H         1.0       0.9506120532655395  0.8363671551172066  0.42264316671404506          1.0000   
         H         H         1.0       0.9156369713803355  0.7899622115983925  0.4381252201404995 1.0000   
         H         H         1.0       0.9401319080401478  0.8379320208622181  0.06478789196172186          1.0000   
         H         H         1.0       0.972800011747591   0.8850920177233522  0.040129496953364985         1.0000   
         C         C         1.0       0.9398448933878849  0.7880337440771142  0.5538868016851997 1.0000   
         C         C         1.0       0.9112411725399905  0.7673648217439628  0.5423659687798025 1.0000   
         C         C         1.0       0.8933455847678307  0.7490278282095144  0.5683659408304315 1.0000   
         C         C         1.0       0.9351616121155442  0.7823405932724815  0.13261295895482222          1.0000   
         C         C         1.0       0.9650926968443834  0.8004290173213506  0.133635342260384  1.0000   
         C         C         1.0       0.9804471076761379  0.8113154158596159  0.10268589844383076          1.0000   
         C         C         1.0       0.8999486888547608  0.7676714003455006  0.5037887836328607 1.0000   
         C         C         1.0       0.9093449226307452  0.74871631312717    0.48213442027832837          1.0000   
         C         C         1.0       0.8922781840250018  0.7200187115815077  0.4804627895288552 1.0000   
         C         C         1.0       0.9032393675979689  0.7052362589651612  0.4651187372885321 1.0000   
         C         C         1.0       0.9275215617799941  0.7179103457836224  0.446152087873997  1.0000   
         C         C         1.0       0.9453285414497763  0.7471550836095404  0.4507793150308424 1.0000   
         C         C         1.0       0.9367730704537697  0.7617774705636889  0.46896940382652746          1.0000   
         C         C         1.0       0.8516706573166157  0.7634393047632406  0.5267449936632765 1.0000   
         C         C         1.0       0.825749501218385   0.7595406532798199  0.5175615636858123 1.0000   
         C         C         1.0       0.8168824656428394  0.75705284735033    0.4827972023057009 1.0000   
         C         C         1.0       0.8307232308510305  0.7504427576126373  0.4575746364585554 1.0000   
         C         C         1.0       0.8552456201760954  0.7501098974752949  0.4676799330554271 1.0000   
         C         C         1.0       0.866494021130987   0.757649280485911   0.5009458224643709 1.0000   
         C         C         1.0       0.7909652487140569  0.7613361000825052  0.47201896321267456          1.0000   
         C         C         1.0       0.727966678761956   0.6714581958408286  0.4697825239321955 1.0000   
         C         C         1.0       0.767736587162495   0.6954228079919149  0.05114408926616276          1.0000   
         C         C         1.0       0.7791578312031807  0.7239405582966466  0.05068729620807866          1.0000   
         C         C         1.0       0.7665758161652301  0.7287225652125071  0.46788755643900903          1.0000   
         C         C         1.0       0.7578501314022527  0.7130088704690067  0.4374230903527828 1.0000   
         C         C         1.0       0.7383952825171677  0.6844431301404965  0.4369331813315918 1.0000   
         C         C         1.0       0.7957904797982797  0.7788178407608446  0.43842191616219695          1.0000   
         C         C         1.0       0.8228911531330562  0.8015466624278498  0.43031646674815105          1.0000   
         C         C         1.0       0.8265657081689588  0.8194192607986712  0.40335800569102115          1.0000   
         C         C         1.0       0.803477435786636   0.8138589938239176  0.38269714633587243          1.0000   
         C         C         1.0       0.7769613195129418  0.7912379300431512  0.39012743056625776          1.0000   
         C         C         1.0       0.7726795860625177  0.7748698009813267  0.4182844163238075 1.0000   
         C         C         1.0       0.7556556380758376  0.7717740017286524  0.5008283112209361 1.0000   
         C         C         1.0       0.7523820749018512  0.784259809550155   0.07681341581659336          1.0000   
         C         C         1.0       0.7728424251682586  0.8112150231018654  0.08943031966308394          1.0000   
         C         C         1.0       0.7993078969788607  0.8206587443190632  0.5331631088690858 1.0000   
         C         C         1.0       0.8068425839558175  0.8061813838530223  0.512110318950833  1.0000   
         C         C         1.0       0.7842616699527715  0.7791600680579409  0.4969440200357183 1.0000   
         H         H         1.0       0.9577837161084546  0.8055391610064916  0.5378616931096173 1.0000   
         H         H         1.0       0.8697477452430236  0.7319099287741998  0.5614225086694206 1.0000   
         H         H         1.0       0.9201673747782383  0.7754744147953931  0.15378456482474284          1.0000   
         H         H         1.0       0.0037536660757806484         0.8275157754561698 0.10344574586902465          1.0000   
         H         H         1.0       0.8710781715705089  0.712453735341722   0.48851886512081233          1.0000   
         H         H         1.0       0.8892738489739443  0.6830634055423643  0.46305810602122566          1.0000   
         H         H         1.0       0.9670591605188346  0.7588614772864044  0.43912845158712854          1.0000   
         H         H         1.0       0.9515558271363156  0.7838714826394877  0.4713794844918843 1.0000   
         H         H         1.0       0.8608813417176002  0.7706705646791443  0.5527271786830537 1.0000   
         H         H         1.0       0.8469319851558637  0.7936464461375338  0.079013467366343  1.0000   
         H         H         1.0       0.8224111579246174  0.7450668544629123  0.4313478566384904 1.0000   
         H         H         1.0       0.8691506772339607  0.751168308943373   0.4473077428591814 1.0000   
         H         H         1.0       0.7658696942297675  0.6846598432207703  0.0749009771457852 1.0000   
         H         H         1.0       0.785537470329894   0.737123493331796   0.07404394125993448          1.0000   
         H         H         1.0       0.7685539839694078  0.721575766260964   0.41391006875434405          1.0000   
         H         H         1.0       0.7344516581813219  0.6723518868948599  0.41269132773124273          1.0000   
         H         H         1.0       0.8406693774837651  0.8054342200375058  0.44585493077360894          1.0000   
         H         H         1.0       0.8486109616881128  0.8365842556370652  0.3957238928787454 1.0000   
         H         H         1.0       0.7577563707384066  0.7859938177991033  0.3751839281014289 1.0000   
         H         H         1.0       0.7508564034682675  0.7600488440745563  0.42707024020836154          1.0000   
         H         H         1.0       0.7392594944904103  0.7537865256179707  0.4868263591114193 1.0000   
         H         H         1.0       0.729589133297771   0.7752280862751515  0.08214423479068052          1.0000   
         H         H         1.0       0.8154551878575644  0.8383252783935438  0.5483561970637854 1.0000   
         H         H         1.0       0.829374314841333   0.813174820525882   0.5102183833089223 1.0000   
         C         C         1.0       0.92631445318657    0.6888623306786642  0.3673386365338269 1.0000   
         C         C         1.0       0.9009313117769746  0.6705826808516419  0.34688021545920816          1.0000   
         C         C         1.0       0.9012831029568676  0.6751031871416995  0.3109791694936809 1.0000   
         C         C         1.0       0.9257059829609608  0.6974432858078391  0.2958467125598835 1.0000   
         C         C         1.0       0.9500418733868806  0.7142219179953805  0.31642989201951505          1.0000   
         C         C         1.0       0.9500807844552318  0.7112793337547092  0.3517946562186786 1.0000   
         H         H         1.0       0.8812388229776854  0.6540059515883814  0.35961692980051496          1.0000   
         H         H         1.0       0.8826231933022297  0.6627301697422967  0.2945712591438814 1.0000   
         H         H         1.0       0.9718425593778639  0.7280539744672055  0.30594456243400564          1.0000   
         H         H         1.0       0.9702820699979989  0.7195647209452553  0.36762226736612313          1.0000   
         C         C         1.0       0.9584557477894399  0.7547512158144257  0.25288538729331406          1.0000   
         C         C         1.0       0.949905898793238   0.72932260009787    0.2360554392585936 1.0000   
         C         C         1.0       0.958475786085901   0.7307382987370556  0.2019891931913665 1.0000   
         C         C         1.0       0.9738239972396635  0.7557837835433047  0.18454502817179613          1.0000   
         C         C         1.0       0.9818704713326589  0.7796279420943647  0.20212124123968236          1.0000   
         C         C         1.0       0.9736092270858986  0.7790602810749051  0.2366475374914934 1.0000   
         C         C         1.0       0.9262770816044565  0.6992879875217329  0.2543937207785658 1.0000   
         C         C         1.0       0.8983440929005764  0.6962249097861057  0.23669190099102158          1.0000   
         C         C         1.0       0.8895230259060041  0.687596676539304   0.20275347146877165          1.0000   
         C         C         1.0       0.8666017752289935  0.687312518281582   0.1881073990903498 1.0000   
         C         C         1.0       0.8512014874286411  0.6958868090070595  0.20804501814731496          1.0000   
         C         C         1.0       0.8615188414550113  0.7077628635706594  0.24025297711858726          1.0000   
         C         C         1.0       0.8848679130689548  0.7067942075279537  0.2551932313554433 1.0000   
         C         C         1.0       0.9602774479850769  0.6823988601007971  0.24862080612736018          1.0000   
         C         C         1.0       0.9669482732196577  0.6643349285495945  0.23324184294352557          1.0000   
         C         C         1.0       0.9457870321702752  0.6395080308399829  0.21564615202591833          1.0000   
         C         C         1.0       0.917370070318761   0.631808414567054   0.21609212609249512          1.0000   
         C         C         1.0       0.910539384856522   0.6495323227017095  0.23141831081435402          1.0000   
         C         C         1.0       0.9323085255820542  0.6756950388508395  0.244505139030247  1.0000   
         C         C         1.0       0.9580641161456646  0.6267115758705831  0.18808296467355703          1.0000   
         C         C         1.0       0.979630495815454   0.6898883187177859  0.10884159219599124          1.0000   
         C         C         1.0       0.9996596779383988  0.6933436354322777  0.13337870819428227          1.0000   
         C         C         1.0       0.9936262820472698  0.672370996642475   0.1565171174671418 1.0000   
         C         C         1.0       0.9661357726068975  0.6488664509100438  0.15879897022071393          1.0000   
         C         C         1.0       0.9443718590680771  0.6471977070061447  0.13700492737188646          1.0000   
         C         C         1.0       0.9516444258818904  0.666522192143655   0.11079830689284823          1.0000   
         C         C         1.0       0.9347317913022904  0.5939306006676411  0.17556108554468292          1.0000   
         C         C         1.0       0.9203511983195077  0.5749688233565274  0.20197587168426653          1.0000   
         C         C         1.0       0.9023494038592752  0.5466145268088106  0.19541906649709748          1.0000   
         C         C         1.0       0.8958493774023517  0.5362279516889386  0.16191107683847653          1.0000   
         C         C         1.0       0.910638348010304   0.5558984154979678  0.1357407368225924 1.0000   
         C         C         1.0       0.9306238433508919  0.583410880078349   0.14298779647011103          1.0000   
         C         C         1.0       0.0025495765793033254         0.6228713604701523 0.17645852654503627          1.0000   
         C         C         1.0       0.028116316563474353          0.6253408247829167 0.18835941523925748          1.0000   
         C         C         1.0       0.03393643594258089           0.6273454158996983 0.2224867980071747 1.0000   
         C         C         1.0       0.01281953726037588           0.6235825630801054 0.24530669075425926          1.0000   
         C         C         1.0       0.9884191117470152  0.6222278270095501  0.23434532209985995          1.0000   
         C         C         1.0       0.9845714547425165  0.623668294058385   0.19870340277936083          1.0000   
         H         H         1.0       0.9549499798747042  0.7569152478932051  0.27857997878867996          1.0000   
         H         H         1.0       0.9490274774884044  0.7109717699554583  0.18796906539835548          1.0000   
         H         H         1.0       0.9783963997798495  0.7554260569307609  0.15817745036035555          1.0000   
         H         H         1.0       0.9808228573740051  0.7988227622062009  0.24875219581018254          1.0000   
         H         H         1.0       0.901429410253422   0.6810930493038603  0.18590933788917807          1.0000   
         H         H         1.0       0.8602353557433605  0.679624616616001   0.162022477591642  1.0000   
         H         H         1.0       0.8486771248291409  0.7130509022714016  0.2550014518450311 1.0000   
         H         H         1.0       0.8941291113535087  0.7152833558376475  0.28110171660721694          1.0000   
         H         H         1.0       0.9750529436493991  0.6991361646138505  0.26637729513264696          1.0000   
         H         H         1.0       0.9890853090949109  0.6717766755036417  0.23471644799978159          1.0000   
         H         H         1.0       0.899816361332369   0.6126035993483169  0.2041430745766667 1.0000   
         H         H         1.0       0.8880608721152039  0.643902857006466   0.23286587092602357          1.0000   
         H         H         1.0       0.02285656360198618           0.7104025801230537 0.13372142686516944          1.0000   
         H         H         1.0       0.0105950490821074  0.6765126754575608  0.1731330881009236 1.0000   
         H         H         1.0       0.9228806152460488  0.6297727043319469  0.13732919211857234          1.0000   
         H         H         1.0       0.9348106506835737  0.6662339453635957  0.09349985251913948          1.0000   
         H         H         1.0       0.9264275275433196  0.5827550436903043  0.22782012092338305          1.0000   
         H         H         1.0       0.8924310526686438  0.5341600709588323  0.2166049244185623 1.0000   
         H         H         1.0       0.9030009170262256  0.550034957984494   0.11082773658164284          1.0000   
         H         H         1.0       0.9432208471642464  0.5970666059740338  0.12165720696657756          1.0000   
         H         H         1.0       0.9999046086648946  0.6211421081221367  0.14882571131200217          1.0000   
         H         H         1.0       0.042854614407486835          0.6251037287231578 0.17140735478522567          1.0000   
         H         H         1.0       0.01723253706947636           0.626941551310706  0.27312796938365447          1.0000   
         H         H         1.0       0.9714706612527222  0.6166262462920763  0.2539427254538639 1.0000   
         C         C         1.0       0.871666272416022   0.18170173419094804           0.3763663697476881 1.0000   
         C         C         1.0       0.8792628743821403  0.2071492220449921  0.36385476299556174          1.0000   
         C         C         1.0       0.8759773261058312  0.21028213750579852           0.32931124542304785          1.0000   
         C         C         1.0       0.869770205267577   0.1895393910727618  0.30555302074477125          1.0000   
         C         C         1.0       0.8599292959735794  0.16251507129968268           0.3190177752798365 1.0000   
         C         C         1.0       0.8628168636834331  0.15949924825299386           0.35367380335659626          1.0000   
         H         H         1.0       0.8892431730905092  0.22612010276922936           0.378736755377756  1.0000   
         H         H         1.0       0.8821321265029296  0.2301608853476211  0.31895007770963846          1.0000   
         H         H         1.0       0.855782230664994   0.1449169467699617  0.30181554863103205          1.0000   
         H         H         1.0       0.8588117409726523  0.13877419126997245           0.36185218972729394          1.0000   
         C         C         1.0       0.902492543491861   0.17370938120229507           0.2561789938239479 1.0000   
         C         C         1.0       0.8801528758616138  0.1761396436615505  0.24480288002705866          1.0000   
         C         C         1.0       0.8690497394513756  0.1648267409593228  0.2125360127116454 1.0000   
         C         C         1.0       0.8804701093112306  0.15340392994439703           0.19262312012637325          1.0000   
         C         C         1.0       0.9004720482068795  0.14834395694716243           0.20645624166771465          1.0000   
         C         C         1.0       0.9126497828576356  0.16036122400224523           0.2362983098304792 1.0000   
         C         C         1.0       0.872327159595691   0.19457371127241613           0.2661365795181699 1.0000   
         C         C         1.0       0.8971649602458264  0.2249070035849131  0.2539442920632624 1.0000   
         C         C         1.0       0.8952206139577599  0.23495687060320766           0.22153918530325414          1.0000   
         C         C         1.0       0.9140159224254981  0.26081920727473606           0.2103637894164618 1.0000   
         C         C         1.0       0.9375438939397165  0.2780719287877374  0.23226960354734213          1.0000   
         C         C         1.0       0.9427255130928387  0.2680964962620063  0.26100847815483247          1.0000   
         C         C         1.0       0.9229681879699299  0.24129037374924503           0.27067862315948155          1.0000   
         C         C         1.0       0.8189659648439599  0.16004212458773667           0.2556668361347331 1.0000   
         C         C         1.0       0.7924699504118735  0.15234083026374226           0.244719507328127  1.0000   
         C         C         1.0       0.78653967801695    0.1735716211384907  0.2349923363085331 1.0000   
         C         C         1.0       0.8087920811205418  0.202355275647383   0.24189531534749686          1.0000   
         C         C         1.0       0.8348055351201925  0.20917019627549777           0.25553035216290887          1.0000   
         C         C         1.0       0.8413044949175487  0.18878453912126977           0.25954872558520137          1.0000   
         C         C         1.0       0.7603739859739083  0.1647698676647614  0.20965479897694014          1.0000   
         C         C         1.0       0.8001390094728911  0.15826062137232821           0.11744424503464743          1.0000   
         C         C         1.0       0.7823077713153666  0.13406016729800524           0.13551908933730766          1.0000   
         C         C         1.0       0.7698398399025916  0.13522018789276344           0.16488772182792805          1.0000   
         C         C         1.0       0.7752878239124659  0.16106587731741254           0.17685987029916528          1.0000   
         C         C         1.0       0.7933056695915544  0.18484754971186532           0.1583167258707861 1.0000   
         C         C         1.0       0.8053203779765727  0.18403161796283293           0.12836092403587115          1.0000   
         C         C         1.0       0.7504392081719117  0.18638627968244262           0.2059483835146051 1.0000   
         C         C         1.0       0.751459317574341   0.20254782683386124           0.23364359022642703          1.0000   
         C         C         1.0       0.7462419299890236  0.22337780077401448           0.22913982205733768          1.0000   
         C         C         1.0       0.7411363173154341  0.22924675737702999           0.196075415045617  1.0000   
         C         C         1.0       0.7378444302422906  0.21294189287521356           0.16796501700286695          1.0000   
         C         C         1.0       0.7436496353809788  0.19254887354243358           0.1737890899702468 1.0000   
         C         C         1.0       0.709615338277846   0.117762584424974   0.1981639590343545 1.0000   
         C         C         1.0       0.6862713346410736  0.0938194514085907  0.20870915014918265          1.0000   
         C         C         1.0       0.6813562401439222  0.08764793738405048           0.2441584552554118 1.0000   
         C         C         1.0       0.7017912111270294  0.10535184512044274           0.26802434274561243          1.0000   
         C         C         1.0       0.7259192106838237  0.13042703325134056           0.2577192737286808 1.0000   
         C         C         1.0       0.7306268837747172  0.13650040479901485           0.2221019193636512 1.0000   
         H         H         1.0       0.9148227243671001  0.1856651993422439  0.27918948034709007          1.0000   
         H         H         1.0       0.854156203887233   0.16843329047323952           0.1989072143936471 1.0000   
         H         H         1.0       0.8695857030941893  0.1443277262566561  0.1688716681903934 1.0000   
         H         H         1.0       0.9299543031551551  0.15875289090504188           0.24733065061031684          1.0000   
         H         H         1.0       0.8782395580262141  0.21942186403332384           0.20418596180258156          1.0000   
         H         H         1.0       0.9090436840914418  0.26703893826448427           0.18781907557475142          1.0000   
         H         H         1.0       0.9635447372600501  0.282117823055069   0.27656641341612126          1.0000   
         H         H         1.0       0.9277515702567569  0.2340671641864215  0.293340631428267  1.0000   
         H         H         1.0       0.8233637274617128  0.14431210033005368           0.259325677976739  1.0000   
         H         H         1.0       0.7806790972379363  0.13128944531095438           0.23376792349500872          1.0000   
         H         H         1.0       0.8053823644399603  0.21865027982497598           0.23281890140967204          1.0000   
         H         H         1.0       0.8523007976047534  0.23166323725914628           0.25581331527607476          1.0000   
         H         H         1.0       0.7742003028825607  0.1133089710948522  0.12404237176984283          1.0000   
         H         H         1.0       0.7589821231342482  0.11591505392688742           0.17907287454535187          1.0000   
         H         H         1.0       0.7986920747014595  0.20431734107301322           0.1677807765496351 1.0000   
         H         H         1.0       0.8193767668205133  0.20443299553863198           0.11574679290968508          1.0000   
         H         H         1.0       0.7558864502058219  0.199022906088733   0.2585434228119226 1.0000   
         H         H         1.0       0.7521927867370986  0.23793413056309756           0.25187371329500075          1.0000   
         H         H         1.0       0.7349978586592704  0.2173048419053985  0.14032742778318008          1.0000   
         H         H         1.0       0.7412605162979634  0.1774035651826581  0.15460399158982505          1.0000   
         H         H         1.0       0.7134463402366225  0.12303794452168128           0.1703926057818894 1.0000   
         H         H         1.0       0.6714686060000425  0.081588074111978   0.18867451130288332          1.0000   
         H         H         1.0       0.6961747801081778  0.10043148984643083           0.2947946180731187 1.0000   
         H         H         1.0       0.7416239182752491  0.14466873690792503           0.27703563258579594          1.0000   
         C         C         1.0       0.9632128030142794  0.12708186584327583           0.5078277642159842 1.0000   
         C         C         1.0       0.9542347154435024  0.13798072269723413           0.4840252739436163 1.0000   
         C         C         1.0       0.9444011225077704  0.1545587890096447  0.49623882056997864          1.0000   
         C         C         1.0       0.9446797480683603  0.1622898396259589  0.5294093134482445 1.0000   
         C         C         1.0       0.9615357775099204  0.15629779769790253           0.5508066714851566 1.0000   
         C         C         1.0       0.9705754811150681  0.13861485441660565           0.5405976519379243 1.0000   
         H         H         1.0       0.9521426170137905  0.13203353150649877           0.45580288646286565          1.0000   
         H         H         1.0       0.9358627427791648  0.16084713808625153           0.47638355101791396          1.0000   
         H         H         1.0       0.9663390773723789  0.15555757942145854           0.04058149391993915          1.0000   
         H         H         1.0       0.9763698291774255  0.11992047537459613           0.023443725494268985         1.0000   
         C         C         1.0       0.9103923332253857  0.13703188143341533           0.0665342087434975 1.0000   
         C         C         1.0       0.922131295984763   0.16353486056571925           0.05409711403919082          1.0000   
         C         C         1.0       0.9334211219468074  0.18545281823486173           0.07823115373474032          1.0000   
         C         C         1.0       0.9338009803075946  0.18089970916563383           0.11339663953164353          1.0000   
         C         C         1.0       0.9234168560996077  0.1536593684889797  0.12542697146549384          1.0000   
         C         C         1.0       0.9113442139993049  0.1321071671813391  0.10109939332121816          1.0000   
         C         C         1.0       0.9241651780165412  0.17305618389555963           0.5436993738101326 1.0000   
         C         C         1.0       0.8952731264458995  0.1610741015052611  0.5230762552432755 1.0000   
         C         C         1.0       0.8846572848988133  0.17808297423004704           0.5216851895868807 1.0000   
         C         C         1.0       0.8637680044515179  0.17364242963667664           0.49643989139592337          1.0000   
         C         C         1.0       0.8581233827897238  0.15542366519506093           0.47011232704434625          1.0000   
         C         C         1.0       0.865895925403889   0.13635805192071174           0.47205967852369923          1.0000   
         C         C         1.0       0.8826039668052199  0.13829470536225277           0.5002468503302878 1.0000   
         C         C         1.0       0.9691628678767326  0.22397026141639445           0.560379862427337  1.0000   
         C         C         1.0       0.991429946625776   0.2506425620733274  0.5513651336512874 1.0000   
         C         C         1.0       0.9925054639475517  0.26071124960048386           0.5183511122951753 1.0000   
         C         C         1.0       0.9703154318607122  0.24404646120888837           0.4944752628568391 1.0000   
         C         C         1.0       0.9488969049542104  0.21759532002329504           0.5035479714313299 1.0000   
         C         C         1.0       0.9482341750972764  0.20687816164219663           0.536808614529836  1.0000   
         C         C         1.0       0.014526441607841889          0.2933574158488618 0.5100085284783714 1.0000   
         C         C         1.0       0.9545987573662723  0.31948164186064393           0.536349359037746  1.0000   
         C         C         1.0       0.010473076361244837          0.32019583028584453          0.05167636831789624          1.0000   
         C         C         1.0       0.019089439637430372          0.3049085888071521 0.03394122880962813          1.0000   
         C         C         1.0       0.9935834815378316  0.303237789242727   0.5195751024497584 1.0000   
         C         C         1.0       0.9760411895376836  0.305125766475391   0.4939822465586429 1.0000   
         C         C         1.0       0.9578793736149566  0.31530179831197125           0.5015939856517604 1.0000   
         C         C         1.0       0.027080232751980793          0.2995771571596327 0.4715839887101123 1.0000   
         C         C         1.0       0.033374485752478256          0.28149287853253746          0.45658110615118286          1.0000   
         C         C         1.0       0.045886200495764085          0.2881403888091428 0.4235699196988863 1.0000   
         C         C         1.0       0.05374785896962808           0.31196318022285363          0.4078823956352603 1.0000   
         C         C         1.0       0.048285944442566064          0.33063564952746743          0.4219342540921715 1.0000   
         C         C         1.0       0.03331692924409513           0.32343046261187536          0.452313370819583  1.0000   
         C         C         1.0       0.058600655961854375          0.3350585912877189 0.546360253529941  1.0000   
         C         C         1.0       0.10745611436523371           0.3321656069248276 0.006645100099827328         1.0000   
         C         C         1.0       0.11549296207937852           0.31348910710333455          0.009023449168791497         1.0000   
         C         C         1.0       0.08208410718162545           0.30318694851474   0.5591330980336494 1.0000   
         C         C         1.0       0.05731177603487825           0.29200550291181937          0.5404500128074378 1.0000   
         C         C         1.0       0.04585605456188602           0.30841159159666387          0.5320795804517023 1.0000   
         H         H         1.0       0.9022278210153113  0.11789167893377807           0.050977728757346526         1.0000   
         H         H         1.0       0.9410693313266428  0.2070442900810939  0.06944919126837149          1.0000   
         H         H         1.0       0.9414945215900894  0.1988942393940033  0.1303068165512457 1.0000   
         H         H         1.0       0.9039853091687222  0.11162992168221857           0.10982846133611686          1.0000   
         H         H         1.0       0.8935035683278274  0.19703370533349351           0.5379890915907172 1.0000   
         H         H         1.0       0.8565685625177186  0.1881221050352621  0.49298379508590606          1.0000   
         H         H         1.0       0.8605908239783312  0.1219578580694371  0.4508220337407009 1.0000   
         H         H         1.0       0.8850103559802026  0.12042107551648283           0.501771372574789  1.0000   
         H         H         1.0       0.9823450815151354  0.20595778711993432           0.04925370041293409          1.0000   
         H         H         1.0       0.02185170502878786           0.2521553927923221 0.03357631603367972          1.0000   
         H         H         1.0       0.9704138830359599  0.25215231113666514           0.46875836756027306          1.0000   
         H         H         1.0       0.9317002099953006  0.20267864107635866           0.48477876557061156          1.0000   
         H         H         1.0       0.017212401109238495          0.32765001005617056          0.07874356126108821          1.0000   
         H         H         1.0       0.033886941259732906          0.3002974946229498 0.044038319307849516         1.0000   
         H         H         1.0       0.9776747237921791  0.29961423117938407           0.46618167689351125          1.0000   
         H         H         1.0       0.9488606588865292  0.3205558856122108  0.4812239576216935 1.0000   
         H         H         1.0       0.031371587071531426          0.26473994212032126          0.4710988112540286 1.0000   
         H         H         1.0       0.04733542326085627           0.27130542483503295          0.4125452202375079 1.0000   
         H         H         1.0       0.056460693608505697          0.35135857148071536          0.40971717866278273          1.0000   
         H         H         1.0       0.03066900232676617           0.3387540307413194 0.4645357164554509 1.0000   
         H         H         1.0       0.051545765453175685          0.3495734274950212 0.5401400155594509 1.0000   
         H         H         1.0       0.12163906693768375           0.35457033431671087          0.013869463464298182         1.0000   
         H         H         1.0       0.09306818792815517           0.291456899945213  0.5597600248780099 1.0000   
         H         H         1.0       0.04853174898870982           0.27079869574551596          0.5304597363430805 1.0000   
         C         C         1.0       0.3310985740484763  0.5562189854155771  0.36463612121476   1.0000   
         C         C         1.0       0.3164929998622332  0.5356424256726409  0.33937240719241124          1.0000   
         C         C         1.0       0.2970851755802667  0.5085007916419253  0.3482221572120542 1.0000   
         C         C         1.0       0.29241152545758703           0.5015296785964124 0.3834485655203747 1.0000   
         C         C         1.0       0.3028366955814909  0.523944988364313   0.4077207276875302 1.0000   
         C         C         1.0       0.32168239972865864           0.5514766677876667 0.39715295345477175          1.0000   
         H         H         1.0       0.31919114820826555           0.5403418111557358 0.31184285282292656          1.0000   
         H         H         1.0       0.28733111904287223           0.4920598269032553 0.32794534871142844          1.0000   
         H         H         1.0       0.29899710999495577           0.5194800509113251 0.43478368364304404          1.0000   
         H         H         1.0       0.3322303102329528  0.567543346364018   0.4164516758389557 1.0000   
         C         C         1.0       0.3207580060365537  0.48539533672690566           0.4430572044570556 1.0000   
         C         C         1.0       0.2906212625651198  0.46926257592059883           0.43614669969975967          1.0000   
         C         C         1.0       0.2727127098701908  0.454943001626327   0.4628280796449082 1.0000   
         C         C         1.0       0.28265006667947656           0.4565357607883172 0.49595710801949244          1.0000   
         C         C         1.0       0.31168033680553103           0.4772095234838749 0.5031594396013231 1.0000   
         C         C         1.0       0.3307220128396517  0.49135406969379586           0.4770716366787578 1.0000   
         C         C         1.0       0.2773797526492563  0.46978881235175407           0.39808539034436957          1.0000   
         C         C         1.0       0.2832711895934121  0.44829539358850273           0.3778657254843231 1.0000   
         C         C         1.0       0.2636300272670252  0.4196650049362562  0.3789746978177215 1.0000   
         C         C         1.0       0.2606481666948078  0.40285253475260807           0.3508762691468313 1.0000   
         C         C         1.0       0.27988861574218776           0.414637616167927  0.3232243431932194 1.0000   
         C         C         1.0       0.30266856467374814           0.4418538358385764 0.32578169386762773          1.0000   
         C         C         1.0       0.3046284605009797  0.4585853988783427  0.35259508894402225          1.0000   
         C         C         1.0       0.22557106353434592           0.4625168577705666 0.41740337327608906          1.0000   
         C         C         1.0       0.20270571722799838           0.46361137946496017          0.40528039737550686          1.0000   
         C         C         1.0       0.19612632101574404           0.4604529490369905 0.36998948741731   1.0000   
         C         C         1.0       0.21274291331692874           0.45570084957374757          0.34665116740318164          1.0000   
         C         C         1.0       0.23623429127735485           0.4567229174993925 0.3575819689139847 1.0000   
         C         C         1.0       0.2431376649823276  0.4600161747764076  0.3930058923153762 1.0000   
         C         C         1.0       0.16656542582878306           0.45364389511211045          0.3563669596307497 1.0000   
         C         C         1.0       0.11560412784859765           0.36201792327246163          0.3663288332298314 1.0000   
         C         C         1.0       0.11808887993071271           0.37818612032481963          0.3941323601627148 1.0000   
         C         C         1.0       0.1331643877134678  0.4061483607663172  0.3906457858102699 1.0000   
         C         C         1.0       0.14811659807569413           0.42054258280362955          0.36001136066689526          1.0000   
         C         C         1.0       0.14631371972108057           0.4042700204542739 0.3333803989285295 1.0000   
         C         C         1.0       0.13086162034025778           0.37524002321468825          0.33610116204549184          1.0000   
         C         C         1.0       0.16835717465510563           0.4656552105716068 0.31843613977887597          1.0000   
         C         C         1.0       0.1913848590381275  0.4930334242043243  0.3105342329685335 1.0000   
         C         C         1.0       0.19060540891459832           0.5060471962281737 0.2804620221042889 1.0000   
         C         C         1.0       0.1665835863570806  0.49336267268053263           0.259266652669675  1.0000   
         C         C         1.0       0.14409860125997867           0.4668777576682985 0.26680111038907633          1.0000   
         C         C         1.0       0.14386181293210437           0.45406103948592924          0.29712524606674495          1.0000   
         C         C         1.0       0.12310144739356087           0.4577433136159196 0.3766598368494557 1.0000   
         C         C         1.0       0.11171840312957557           0.4722042865460449 0.3918540418744771 1.0000   
         C         C         1.0       0.1297339854348221  0.49769052657617524           0.4060770215860821 1.0000   
         C         C         1.0       0.15996304311328038           0.5099875142312648 0.403281166537522  1.0000   
         C         C         1.0       0.17069882980130405           0.4964602356824245 0.3874631427976379 1.0000   
         C         C         1.0       0.15298113279653372           0.46922510609607343          0.37662163239425933          1.0000   
         H         H         1.0       0.3356815304473525  0.4954435769177076  0.42031432065875823          1.0000   
         H         H         1.0       0.24997622304325565           0.4431668268644964 0.456565420298933  1.0000   
         H         H         1.0       0.2687296199605133  0.4478566078755202  0.5179079492114432 1.0000   
         H         H         1.0       0.3549166577472855  0.5034867036687969  0.481774942549214  1.0000   
         H         H         1.0       0.24509021101286185           0.409327267611598  0.3976993885641535 1.0000   
         H         H         1.0       0.2421919061455366  0.3825663332162327  0.34416126640671285          1.0000   
         H         H         1.0       0.3159557145757818  0.45298839345596875           0.3022947962237199 1.0000   
         H         H         1.0       0.3230832419760496  0.48047540648023324           0.34961774937960344          1.0000   
         H         H         1.0       0.23577362956747655           0.4720803979953236 0.44256487198513084          1.0000   
         H         H         1.0       0.19062344884723328           0.46835382963446115          0.42366478446569217          1.0000   
         H         H         1.0       0.20512677183664937           0.4500167705546307 0.319457503325011  1.0000   
         H         H         1.0       0.25030869556610696           0.4550680122377347 0.33842428712888717          1.0000   
         H         H         1.0       0.10829454826190292           0.3694261182895326 0.41874559920023346          1.0000   
         H         H         1.0       0.13562699141781426           0.42026727645508816          0.4119665012754394 1.0000   
         H         H         1.0       0.15814461600895496           0.4126624834553371 0.3101146038556573 1.0000   
         H         H         1.0       0.1268616311795665  0.3636323827866557  0.31121405668435476          1.0000   
         H         H         1.0       0.20891367888657783           0.5049203885357583 0.32833167698551696          1.0000   
         H         H         1.0       0.2072622437952208  0.5280053852931788  0.27646515203064076          1.0000   
         H         H         1.0       0.12506319483297568           0.45753655573699725          0.2512544685548158 1.0000   
         H         H         1.0       0.12250007011477893           0.43499863429900476          0.3001269129871535 1.0000   
         H         H         1.0       0.11073102611966032           0.4374308875734818 0.36553235853444244          1.0000   
         H         H         1.0       0.088974598678072   0.46347461779983545           0.3898482525165435 1.0000   
         H         H         1.0       0.175726812629251   0.5311767907015041  0.41235591539834726          1.0000   
         H         H         1.0       0.1934764799061964  0.505833674672717   0.3822513271028261 1.0000   
         C         C         1.0       0.27478562496075415           0.374202542211106  0.23483621755516587          1.0000   
         C         C         1.0       0.24768297029836547           0.35047906647608146          0.225523563321913  1.0000   
         C         C         1.0       0.24274282162076655           0.34348675574213   0.18983584895068495          1.0000   
         C         C         1.0       0.2631037446901514  0.36099774823609904           0.16603877022662064          1.0000   
         C         C         1.0       0.2887776674191275  0.38180407840160013           0.1772738505133121 1.0000   
         C         C         1.0       0.29588691509455645           0.38929322521037674          0.21138713403985154          1.0000   
         H         H         1.0       0.23474140717618514           0.33432591178587734          0.24272081624054043          1.0000   
         H         H         1.0       0.22399332552381643           0.3248555705002678 0.18287297007991038          1.0000   
         H         H         1.0       0.3068770505470563  0.39346624318669365           0.16078204418142755          1.0000   
         H         H         1.0       0.3177702642254017  0.40640834250491265           0.21894275037661737          1.0000   
         C         C         1.0       0.2713673905541288  0.40257220133996136           0.1039141845944989 1.0000   
         C         C         1.0       0.2742275522531039  0.37940968164673855           0.09992492377915295          1.0000   
         C         C         1.0       0.28913785521848434           0.3800180049956134 0.07061472866109071          1.0000   
         C         C         1.0       0.31251010121925904           0.42890645762643514          0.5603614147619723 1.0000   
         C         C         1.0       0.3198683995826996  0.4520000323161514  0.5779866629568088 1.0000   
         C         C         1.0       0.28146955858765577           0.4238229557805156 0.07994997678630958          1.0000   
         C         C         1.0       0.25720293740395556           0.3528022528447679 0.12621694373339296          1.0000   
         C         C         1.0       0.2253476915095351  0.34171502780997937           0.11065843229480209          1.0000   
         C         C         1.0       0.21786178136421602           0.329351343299098  0.07793051959753025          1.0000   
         C         C         1.0       0.19057371673859988           0.3187229419984871 0.06453081792085902          1.0000   
         C         C         1.0       0.16988649989140694           0.3207499220299414 0.08210384352941404          1.0000   
         C         C         1.0       0.1797651603601361  0.3382147359776095  0.11101212913781135          1.0000   
         C         C         1.0       0.20672553289126971           0.3476496479023094 0.12576903089194427          1.0000   
         C         C         1.0       0.2987606989819405  0.3408311827672156  0.12166828983854694          1.0000   
         C         C         1.0       0.30895236757944194           0.326294667618323  0.10431066162142826          1.0000   
         C         C         1.0       0.2893527988615721  0.3013183353760988  0.08727520393370584          1.0000   
         C         C         1.0       0.2585231335914847  0.2883090664648594  0.09477361608246539          1.0000   
         C         C         1.0       0.24968020110307795           0.3036041662483413 0.11233649766863767          1.0000   
         C         C         1.0       0.2689101590012063  0.33128996955641765           0.12338124919150982          1.0000   
         C         C         1.0       0.3003477298335041  0.2880120047753971  0.05826331719375079          1.0000   
         C         C         1.0       0.3107533076666306  0.34574236632679284           0.4770953425235048 1.0000   
         C         C         1.0       0.3279615606030704  0.3456208309977784  0.5023181093448238 1.0000   
         C         C         1.0       0.31789377445467243           0.32515913256155304          0.5288417708624732 1.0000   
         C         C         1.0       0.28890914901863823           0.3050541957294849 0.527491998373243  1.0000   
         C         C         1.0       0.2715103110553308  0.30403901132152006           0.4999244031221955 1.0000   
         C         C         1.0       0.28166159549845204           0.32551479394362104          0.47662304570671415          1.0000   
         C         C         1.0       0.28006103595030285           0.2542927626561649 0.05101567883468606          1.0000   
         C         C         1.0       0.26294693780892225           0.2353979607563058 0.07711191535916705          1.0000   
         C         C         1.0       0.24469528723733278           0.2065144510257777 0.06941838950043697          1.0000   
         C         C         1.0       0.2018533347724702  0.2003722729991311  0.5381264642526252 1.0000   
         C         C         1.0       0.22347458154981956           0.2158092530406362 0.5145370556487684 1.0000   
         C         C         1.0       0.24490634753038207           0.24226849343758822          0.523429088164897  1.0000   
         C         C         1.0       0.35030038852076056           0.2919525475196374 0.04843642509738278          1.0000   
         C         C         1.0       0.37404195788922323           0.2920953415773845 0.060933209752918396         1.0000   
         C         C         1.0       0.3751114345439381  0.28592442178118394           0.09560898454022827          1.0000   
         C         C         1.0       0.35370700825133483           0.2823549136582486 0.11684479109946115          1.0000   
         C         C         1.0       0.32963036938195883           0.282624282454277  0.10433701481126822          1.0000   
         C         C         1.0       0.3273976770114183  0.2876097298196659  0.07013615177917203          1.0000   
         H         H         1.0       0.26076485443056385           0.40445250204945427          0.12797404854940597          1.0000   
         H         H         1.0       0.28853196278488397           0.36109165682837013          0.06146077741137602          1.0000   
         H         H         1.0       0.3209418770214876  0.4301108570852191  0.5355546991302738 1.0000   
         H         H         1.0       0.2760042159465058  0.44008563777623233           0.08139953319074308          1.0000   
         H         H         1.0       0.23204915455868982           0.3236320130460887 0.06447900289894984          1.0000   
         H         H         1.0       0.19061345948539932           0.3627903058759825 0.5386187832431562 1.0000   
         H         H         1.0       0.16421336289336888           0.3424351171840959 0.12307244439392401          1.0000   
         H         H         1.0       0.21302948401561767           0.3614540913496009 0.14918185333930348          1.0000   
         H         H         1.0       0.3124391006559815  0.36157825289284545           0.1327842604070772 1.0000   
         H         H         1.0       0.3318932327940309  0.33488202024777286           0.10300321607892596          1.0000   
         H         H         1.0       0.2427886812931101  0.2705503261431692  0.08125047708177534          1.0000   
         H         H         1.0       0.22596072191264885           0.2949417901597346 0.1094070638216567 1.0000   
         H         H         1.0       0.3494056582466696  0.36410993609404513           0.5026171704407106 1.0000   
         H         H         1.0       0.3476833090684628  0.34067064224227955           0.036484221138594286         1.0000   
         H         H         1.0       0.24796956553907484           0.287535763395754  0.4979193816392782 1.0000   
         H         H         1.0       0.26643252367171705           0.32347714962552176          0.4583344821404422 1.0000   
         H         H         1.0       0.265146154372367   0.24312216059664318           0.10431508366580247          1.0000   
         H         H         1.0       0.2336381992717348  0.19350073408579505           0.09016308616178241          1.0000   
         H         H         1.0       0.22541608108060412           0.2076779319883186 0.4903563546539633 1.0000   
         H         H         1.0       0.26154059417519154           0.2519318243049638 0.5044973507328377 1.0000   
         H         H         1.0       0.3141376834206665  0.2713838934199446  0.5416588530805587 1.0000   
         H         H         1.0       0.39165745469716934           0.29757421850038396          0.04455664954844463          1.0000   
         H         H         1.0       0.35059624122357225           0.27658041436547753          0.14397450273220821          1.0000   
         H         H         1.0       0.3130339327227157  0.27590190768197864           0.12335330674654996          1.0000   
         C         C         1.0       0.2934804898559139  0.8305770060916539  0.3357494212929727 1.0000   
         C         C         1.0       0.2954402319121115  0.8444666401815177  0.3053686598219366 1.0000   
         C         C         1.0       0.29215869865937866           0.8671988622226021 0.3069680356803902 1.0000   
         C         C         1.0       0.28048406363989925           0.872958172342214  0.3358705487151046 1.0000   
         C         C         1.0       0.27649877039969095           0.8559047923692319 0.36470429266161947          1.0000   
         C         C         1.0       0.2841099022319744  0.8363032883693657  0.36493599438700586          1.0000   
         H         H         1.0       0.3046128768712267  0.8419028406086706  0.28103824908949476          1.0000   
         H         H         1.0       0.30009542992175225           0.8831998656477267 0.2870765861875891 1.0000   
         H         H         1.0       0.2757388317080239  0.8636575335666893  0.3902503605345374 1.0000   
         H         H         1.0       0.2797612677536977  0.8244354276697715  0.3883993749139455 1.0000   
         C         C         1.0       0.2249710056045105  0.8641922108224366  0.35886583770690306          1.0000   
         C         C         1.0       0.24997910184270994           0.8914374292506857 0.36031994522963146          1.0000   
         C         C         1.0       0.25002976046621855           0.9103622631857935 0.38130992019608895          1.0000   
         C         C         1.0       0.2323412271113888  0.9021751654882763  0.40925962814914985          1.0000   
         C         C         1.0       0.20957594492603657           0.8735989643237266 0.41102710609604043          1.0000   
         C         C         1.0       0.20509739443703356           0.8555355710798732 0.38436381671561753          1.0000   
         C         C         1.0       0.27671374265937404           0.8995585995087617 0.3371791188892828 1.0000   
         C         C         1.0       0.2669035988392214  0.907795550648614   0.30210286346991067          1.0000   
         C         C         1.0       0.27067828550233936           0.9339188389352177 0.2979566235071551 1.0000   
         C         C         1.0       0.2621561481918614  0.940613318591671   0.26795091825113604          1.0000   
         C         C         1.0       0.2484504160863066  0.9210064794904944  0.2428019988801624 1.0000   
         C         C         1.0       0.2421097369267698  0.893612063986715   0.2459322810944452 1.0000   
         C         C         1.0       0.2508429787975811  0.8873318872840474  0.27469470986995453          1.0000   
         C         C         1.0       0.3165849166807421  0.9259959610311576  0.38488949973079317          1.0000   
         C         C         1.0       0.3448275222891482  0.9481825136840316  0.3941455240952959 1.0000   
         C         C         1.0       0.3652175719635066  0.9643939450703933  0.3697520335416928 1.0000   
         C         C         1.0       0.35639275627308287           0.9604328928807875 0.33550895101730843          1.0000   
         C         C         1.0       0.3297130279163945  0.9395479773059805  0.32419269456009886          1.0000   
         C         C         1.0       0.30844436935610736           0.9233082465924395 0.34978928255074093          1.0000   
         C         C         1.0       0.3975091641962351  0.9911340896513511  0.3823536926462053 1.0000   
         C         C         1.0       0.3802659014424884  0.05486661676240612           0.34816276123525197          1.0000   
         C         C         1.0       0.37022199901899333           0.042198184132618666         0.38034449619829364          1.0000   
         C         C         1.0       0.3759445688564925  0.022056410525529646         0.392493258534612  1.0000   
         C         C         1.0       0.3933011730212248  0.01569734620330565           0.3733300574875614 1.0000   
         C         C         1.0       0.40524327776299707           0.03148743681031285          0.3424498174740099 1.0000   
         C         C         1.0       0.39922216858660003           0.050179221606476254         0.3307386059867517 1.0000   
         C         C         1.0       0.42467857117705626           0.9944387825299481 0.36253329591743216          1.0000   
         C         C         1.0       0.42351976194734225           0.9725927667036012 0.3437088682076818 1.0000   
         C         C         1.0       0.4469753419347298  0.9771579654418295  0.327365594073966  1.0000   
         C         C         1.0       0.4740030465111963  0.002177404348825851         0.3341812312591523 1.0000   
         C         C         1.0       0.47661904811101324           0.023743572915402744         0.35424242377476395          1.0000   
         C         C         1.0       0.45166929431211383           0.018849764945278125         0.3679464191702665 1.0000   
         C         C         1.0       0.4172379251439416  0.015097962727997016         0.4438975310653793 1.0000   
         C         C         1.0       0.42890972368483526           0.015803423631447266         0.4760458677695889 1.0000   
         C         C         1.0       0.42978275185731496           0.9938763232571868 0.4867859673845541 1.0000   
         C         C         1.0       0.41808251926429096           0.9698441016185733 0.46582592401316164          1.0000   
         C         C         1.0       0.40726104372649885           0.9694454187613892 0.4338461645705315 1.0000   
         C         C         1.0       0.40767488446976374           0.9918952195339638 0.4213790453807188 1.0000   
         H         H         1.0       0.22029073037740124           0.8466615634793834 0.3410667709322942 1.0000   
         H         H         1.0       0.2693709439920622  0.9323934937729554  0.38159620043792997          1.0000   
         H         H         1.0       0.2386169246918458  0.9189305097336369  0.42772626602755226          1.0000   
         H         H         1.0       0.18876504051240575           0.8338465861996922 0.3830912975190122 1.0000   
         H         H         1.0       0.28221422421928477           0.949723360529372  0.3187215020855062 1.0000   
         H         H         1.0       0.26466786532559927           0.9608341573044435 0.2665743663296896 1.0000   
         H         H         1.0       0.23637354534553265           0.8813269900055261 0.22368177855843407          1.0000   
         H         H         1.0       0.24485625818763185           0.8659280981130277 0.2756362444954366 1.0000   
         H         H         1.0       0.3012669638068571  0.9112409787301786  0.40378057133429646          1.0000   
         H         H         1.0       0.34904520923728544           0.9518131870165647 0.4220964004878146 1.0000   
         H         H         1.0       0.37070299352905556           0.9757779392243193 0.3162098081524846 1.0000   
         H         H         1.0       0.32484320688031604           0.9345150303307243 0.2973248342635079 1.0000   
         H         H         1.0       0.357734035401912   0.04717067531656638           0.3958461030540412 1.0000   
         H         H         1.0       0.3651861596633265  0.010673375324568246         0.4152411410874687 1.0000   
         H         H         1.0       0.4152770655018094  0.024738571459214542         0.32493153607106195          1.0000   
         H         H         1.0       0.40912117574865453           0.06075344633422053          0.30647234863393014          1.0000   
         H         H         1.0       0.40373875792301017           0.952176404138069  0.33781463818867796          1.0000   
         H         H         1.0       0.4436158554545874  0.9602627445454993  0.30769257918071374          1.0000   
         H         H         1.0       0.4976459698590381  0.04114507566525627           0.36190126480484   1.0000   
         H         H         1.0       0.45458079029110765           0.03671229792971853          0.3832298776957755 1.0000   
         H         H         1.0       0.42230858232036866           0.03564553097710732          0.43441767714136914          1.0000   
         H         H         1.0       0.43596752567647007           0.033702406182623434         0.4927473108691377 1.0000   
         H         H         1.0       0.4143976485110087  0.9500937781023129  0.4751690732082815 1.0000   
         H         H         1.0       0.3961259596077891  0.9493119045269165  0.42160460254048965          1.0000   
         C         C         1.0       0.2131478525657158  0.9181961128852599  0.1584958505134567 1.0000   
         C         C         1.0       0.22158408039416438           0.936312921125944  0.1317844349629761 1.0000   
         C         C         1.0       0.21285464190970665           0.9251311517094892 0.09774397660680816          1.0000   
         C         C         1.0       0.19653628958469133           0.8963104339699933 0.09109648416805144          1.0000   
         C         C         1.0       0.188332877430366   0.8784750907544149  0.11915986251240902          1.0000   
         C         C         1.0       0.19767080574619583           0.8892758226187124 0.15248535265005808          1.0000   
         H         H         1.0       0.2342852211796841  0.959310969121064   0.13679668486279645          1.0000   
         H         H         1.0       0.22028876700557615           0.9394201811852623 0.07589929844533835          1.0000   
         H         H         1.0       0.17630630677313314           0.8560532158889601 0.11622307311526918          1.0000   
         H         H         1.0       0.19436580972735473           0.8778466985921312 0.1751179561113764 1.0000   
         C         C         1.0       0.21716447655435134           0.8591532296509788 0.0595781899118556 1.0000   
         C         C         1.0       0.19235154116904185           0.8580351385518947 0.04683523382313037          1.0000   
         C         C         1.0       0.1436995057946283  0.8231718004979739  0.5307362426743737 1.0000   
         C         C         1.0       0.1538926050741484  0.8199335033375236  0.5001779122412569 1.0000   
         C         C         1.0       0.18356819344371544           0.8319168203637954 0.4966804236363549 1.0000   
         C         C         1.0       0.20167705246975837           0.8432675342429338 0.5249024730907973 1.0000   
         C         C         1.0       0.18847475026271468           0.8837481667539304 0.052755447105153674         1.0000   
         C         C         1.0       0.20628917465696864           0.9010180808991936 0.020886412839211888         1.0000   
         C         C         1.0       0.16359396540556342           0.8916956864868657 0.5388729862938475 1.0000   
         C         C         1.0       0.18323312721746934           0.9178560823919458 0.5239146867788066 1.0000   
         C         C         1.0       0.24108172992565477           0.924202809849098  0.961900628927705  1.0000   
         C         C         1.0       0.25305163998424723           0.9313363677196997 0.9939604641004662 1.0000   
         C         C         1.0       0.2366825605329219  0.9204194855910812  0.023885621015893976         1.0000   
         C         C         1.0       0.1343452481430667  0.847383391771775   0.06413499298338911          1.0000   
         C         C         1.0       0.1057054517089373  0.8354148577637706  0.05569600030734856          1.0000   
         C         C         1.0       0.096725863349263   0.8502460526548398  0.036656919848371716         1.0000   
         C         C         1.0       0.11782897732894415           0.8783296463561044 0.030930978870017837         1.0000   
         C         C         1.0       0.1461659504714487  0.888151888424422   0.03812953270418862          1.0000   
         C         C         1.0       0.1553243584050027  0.8721421330783414  0.05114411995426682          1.0000   
         C         C         1.0       0.06601938661503261           0.8355693150638471 0.016377094016807092         1.0000   
         C         C         1.0       0.07551404745128179           0.7931324658307807 0.4410901701639961 1.0000   
         C         C         1.0       0.058918579842069836          0.7707246085663808 0.46176738996637634          1.0000   
         C         C         1.0       0.04872570634754809           0.7739180617688548 0.4926536305064905 1.0000   
         C         C         1.0       0.05074581369617668           0.7989142787472976 0.5020205727615652 1.0000   
         C         C         1.0       0.06930061216873688           0.8226555762313894 0.4815772991119816 1.0000   
         C         C         1.0       0.08100311662963185           0.8197704637516908 0.45078588772213085          1.0000   
         C         C         1.0       0.023378784619457083          0.823524661513302  0.5234633551694645 1.0000   
         C         C         1.0       0.05043527218655086           0.8680530818174239 0.038876167767609056         1.0000   
         C         C         1.0       0.012471463876914779          0.8583509210564759 0.5388728357662247 1.0000   
         C         C         1.0       0.009750920178783762          0.862538655964898  0.5043272037304866 1.0000   
         C         C         1.0       0.009352107675827614          0.843819001771861  0.4807836148756036 1.0000   
         C         C         1.0       0.014858696519668202          0.824243529184172  0.4908344237868054 1.0000   
         C         C         1.0       0.018515744081841312          0.7872033382506369 0.017933464845761415         1.0000   
         C         C         1.0       0.997877887280565   0.7628276146776538  0.033556208208839644         1.0000   
         C         C         1.0       0.9981207070608719  0.7581735159023523  0.06759527394298125          1.0000   
         C         C         1.0       0.01962535464655346           0.7801473975818565 0.08889409719216672          1.0000   
         C         C         1.0       0.03940475240369068           0.8061411455306173 0.0731747203257481 1.0000   
         C         C         1.0       0.041431995314404446          0.8095468577056371 0.03719971886625206          1.0000   
         H         H         1.0       0.23256998874973356           0.8783952992002867 0.07364040562243586          1.0000   
         H         H         1.0       0.12099719516078458           0.8169899926853933 0.5297546682028362 1.0000   
         H         H         1.0       0.13964286473298582           0.8083526204496628 0.4773429190625825 1.0000   
         H         H         1.0       0.2238380172355568  0.8511107991874013  0.5234179039418688 1.0000   
         H         H         1.0       0.14343112367599875           0.8750732280527113 0.5269598931450048 1.0000   
         H         H         1.0       0.1756738240923174  0.9198264458117101  0.49813027166209733          1.0000   
         H         H         1.0       0.27607301235810117           0.9432210022720425 0.0012177883411081947        1.0000   
         H         H         1.0       0.2500404107323251  0.9277557703630248  0.047270627686091915         1.0000   
         H         H         1.0       0.1383102499313991  0.8324520133767107  0.07789369354453818          1.0000   
         H         H         1.0       0.09008811612528045           0.8140476079338295 0.06092727088441198          1.0000   
         H         H         1.0       0.11411492693530322           0.8922319282358958 0.017828482007235413         1.0000   
         H         H         1.0       0.16341878922302897           0.9087823313535555 0.030707823123230952         1.0000   
         H         H         1.0       0.05280553529808124           0.7488372958727396 0.4539288070508233 1.0000   
         H         H         1.0       0.03787832452958848           0.7560825669851806 0.5082274828258131 1.0000   
         H         H         1.0       0.07523791185853737           0.8436405168244387 0.48817572007994714          1.0000   
         H         H         1.0       0.09537374792390545           0.8376151070437912 0.43600146281189733          1.0000   
         H         H         1.0       0.05691606352464995           0.8638480345611884 0.06329959672660487          1.0000   
         H         H         1.0       0.04137355094378514           0.8990812410931498 0.055047356988750636         1.0000   
         H         H         1.0       0.004448426179180176          0.8461549878236264 0.45471028324355806          1.0000   
         H         H         1.0       0.015594936419411898          0.8118992574198599 0.4697253732041729 1.0000   
         H         H         1.0       0.9900127689006258  0.7625707640238564  0.49965744177178995          1.0000   
         H         H         1.0       0.9795656483358954  0.7464803888255274  0.016381929590014055         1.0000   
         H         H         1.0       0.016445744647982652          0.777921221196067  0.11746834098527487          1.0000   
         H         H         1.0       0.05615712467771711           0.822259830979287  0.08798493319539412          1.0000   
         C         C         1.0       0.684830082351792   0.2244408667898717  0.18076353051540317          1.0000   
         C         C         1.0       0.669263479081137   0.2070342134851473  0.1521226080553586 1.0000   
         C         C         1.0       0.6497429663635147  0.17901513887239254           0.15675378942014895          1.0000   
         C         C         1.0       0.6410468676725242  0.16883787760413904           0.19020019438760952          1.0000   
         C         C         1.0       0.6514618050955987  0.18821164253061662           0.2173213847491548 1.0000   
         C         C         1.0       0.673054866426376   0.21555716746719275           0.21320177408494623          1.0000   
         H         H         1.0       0.677837452997544   0.21406724464815527           0.12720904228886448          1.0000   
         H         H         1.0       0.642771792904843   0.1658718733493229  0.13498301707408925          1.0000   
         H         H         1.0       0.644988651060721   0.18050557520891233           0.24353496200753622          1.0000   
         H         H         1.0       0.6811770234402331  0.229711721291523   0.23555261418920234          1.0000   
         C         C         1.0       0.648529606154986   0.13436490145481622           0.24451957682170472          1.0000   
         C         C         1.0       0.6211530057445087  0.12528908442418377           0.23082252566883027          1.0000   
         C         C         1.0       0.5971198715643257  0.10417992422989043           0.24758058152384677          1.0000   
         C         C         1.0       0.5998372747827876  0.09406794421416256           0.27919227078849373          1.0000   
         C         C         1.0       0.6263085384661407  0.10606811400954909           0.29450285115887553          1.0000   
         C         C         1.0       0.6510572560809973  0.12644091549666966           0.27747632597159916          1.0000   
         C         C         1.0       0.6165299561407472  0.13619229033493604           0.19385250878153765          1.0000   
         C         C         1.0       0.6159344137185776  0.11303240213547393           0.1684288475136519 1.0000   
         C         C         1.0       0.5914875443261473  0.08535728172085064           0.16617970770457638          1.0000   
         C         C         1.0       0.5929811873431092  0.06460375646412954           0.1510456541535823 1.0000   
         C         C         1.0       0.6183780398094486  0.07063476626506113           0.13400055692151638          1.0000   
         C         C         1.0       0.6420658420113     0.09764441762452991           0.13527067916970226          1.0000   
         C         C         1.0       0.6407330164295238  0.11768044722830678           0.15258964538368533          1.0000   
         C         C         1.0       0.5820471809353837  0.14832221489159217           0.22145632742730184          1.0000   
         C         C         1.0       0.5543099064038598  0.14183070109183454           0.226247515628367  1.0000   
         C         C         1.0       0.5320203275572997  0.12298163924129786           0.20385912914407656          1.0000   
         C         C         1.0       0.5399802699753373  0.11761586809306285           0.1718258219733353 1.0000   
         C         C         1.0       0.568570677080641   0.12675194393772568           0.16704692110413222          1.0000   
         C         C         1.0       0.5893033107072883  0.1396622031386881  0.1917173551836606 1.0000   
         C         C         1.0       0.4990878389166013  0.10778224593090574           0.2158412065539765 1.0000   
         C         C         1.0       0.500256545776295   0.037907712778006974         0.2621897472335833 1.0000   
         C         C         1.0       0.5067752991004012  0.061156015776179136         0.2824528822315437 1.0000   
         C         C         1.0       0.505420126704985   0.08293347334748942           0.2694326518583937 1.0000   
         C         C         1.0       0.4955434235657462  0.08122174075675676           0.23525438524215045          1.0000   
         C         C         1.0       0.4865552248550699  0.05627938025051377           0.21618106347544885          1.0000   
         C         C         1.0       0.48775359349342434           0.03518110711724787          0.22918673613370263          1.0000   
         C         C         1.0       0.47905142693612374           0.10558305173122759          0.18408595687892412          1.0000   
         C         C         1.0       0.4877757482935089  0.12673319576113512           0.15955231886107688          1.0000   
         C         C         1.0       0.4715299983290294  0.12464038987771116           0.13122299638285617          1.0000   
         C         C         1.0       0.4437211424927947  0.10083343617526798           0.12797014608073048          1.0000   
         C         C         1.0       0.43417723739616454           0.08014647236376475          0.15114719738652999          1.0000   
         C         C         1.0       0.4499536427164105  0.08311200617900048           0.18069288473212947          1.0000   
         C         C         1.0       0.46778966099761105           0.10906943511194489          0.26569351392623874          1.0000   
         C         C         1.0       0.4578608233849996  0.12223398280981784           0.28324433261021376          1.0000   
         C         C         1.0       0.4685654011235439  0.15080784403762926           0.2783869146587571 1.0000   
         C         C         1.0       0.4908997438474632  0.1659202821126446  0.25458083970971607          1.0000   
         C         C         1.0       0.5042171170790372  0.1533321157293109  0.24071005659364075          1.0000   
         C         C         1.0       0.4911354492972734  0.12441029013508814           0.2429591041422124 1.0000   
         H         H         1.0       0.666567409663927   0.1485000819106058  0.23034906848102057          1.0000   
         H         H         1.0       0.5751005408018531  0.09146929830573029           0.23432959267285197          1.0000   
         H         H         1.0       0.5805865714942766  0.07395691107467374           0.2874346390220909 1.0000   
         H         H         1.0       0.6726642015499644  0.13641986872889272           0.28801267866366353          1.0000   
         H         H         1.0       0.5735792065153411  0.07957398923228053           0.1845050809531627 1.0000   
         H         H         1.0       0.576360342569087   0.04302783705470237           0.15546436727591323          1.0000   
         H         H         1.0       0.6612795386624436  0.10176216446745404           0.12449371370875767          1.0000   
         H         H         1.0       0.6599091983380406  0.13749127325822785           0.15867253736690423          1.0000   
         H         H         1.0       0.5954869737757505  0.15498259307461595           0.24395604976545035          1.0000   
         H         H         1.0       0.5525684430689831  0.1470686364052766  0.25289826686433814          1.0000   
         H         H         1.0       0.5241627330269111  0.10791912655812087           0.15233839019623402          1.0000   
         H         H         1.0       0.5719132275490805  0.11574494300844972           0.14523122044830555          1.0000   
         H         H         1.0       0.5159913293341262  0.06304638657821848           0.3093400361969966 1.0000   
         H         H         1.0       0.5132218075712556  0.10232305958104924           0.2818375727247719 1.0000   
         H         H         1.0       0.48208852088901677           0.05412288252090914          0.18851642178576808          1.0000   
         H         H         1.0       0.4813086146584017  0.017536923129727988         0.2130155821495744 1.0000   
         H         H         1.0       0.5094413430164059  0.14478230697608616           0.16237641334580347          1.0000   
         H         H         1.0       0.47738110601893113           0.1416102055640499 0.11481089943025581          1.0000   
         H         H         1.0       0.41488758940777914           0.061234633327653096         0.14650988598958586          1.0000   
         H         H         1.0       0.43981116469490183           0.06670456079552012          0.20077998408286313          1.0000   
         H         H         1.0       0.4569705740335511  0.08564468682843655           0.2706820409461575 1.0000   
         H         H         1.0       0.440369784238807   0.11183182672187975           0.3017561406426465 1.0000   
         H         H         1.0       0.4963055727260431  0.18744846199387338           0.24962496551194174          1.0000   
         H         H         1.0       0.5213182847498015  0.16682195063743255           0.22321227213167358          1.0000   
         C         C         1.0       0.5969012529569341  0.03672905977971408           0.05046469082577665          1.0000   
         C         C         1.0       0.6143720153844175  0.026090165791955666         0.5578279346230326 1.0000   
         C         C         1.0       0.5998979986538427  0.0179598613174905  0.5268156843242989 1.0000   
         C         C         1.0       0.5939715345405402  0.035144889950629477         0.5076323062126235 1.0000   
         C         C         1.0       0.6058605277563137  0.0617328697648515  0.5204960620507036 1.0000   
         C         C         1.0       0.6209990523620599  0.07018631234861585           0.5515707674486984 1.0000   
         H         H         1.0       0.552484836210174   0.006690639949345378         0.045685109003879454         1.0000   
         H         H         1.0       0.5919920692645344  0.996671581773161   0.5173581569101472 1.0000   
         H         H         1.0       0.5998510439299825  0.07514677387662379           0.5067914957995732 1.0000   
         H         H         1.0       0.629791234607306   0.09185296460023602           0.560070597924139  1.0000   
         C         C         1.0       0.5680280778627891  0.04400862969917963           0.4152027035017749 1.0000   
         C         C         1.0       0.5867940197906661  0.047129814540139314         0.44249886187874427          1.0000   
         C         C         1.0       0.6158850983895069  0.06911914726665702           0.44147160979499867          1.0000   
         C         C         1.0       0.6255441027553351  0.08859982380402652           0.4155969512414018 1.0000   
         C         C         1.0       0.6065623445618417  0.084068671160064   0.3873756315438711 1.0000   
         C         C         1.0       0.5786843143004617  0.0622429226522106  0.38787865678974626          1.0000   
         C         C         1.0       0.5755579341986766  0.022915570296904386         0.4720359994904616 1.0000   
         C         C         1.0       0.5440211975184234  0.009737723593869374         0.4843727749994205 1.0000   
         C         C         1.0       0.5266800102540711  0.9825297277781754  0.49625846457387934          1.0000   
         C         C         1.0       0.49881086432515376           0.9728201486824004 0.5075865171116389 1.0000   
         C         C         1.0       0.48867032956163575           0.9908800865764631 0.5109349232552622 1.0000   
         C         C         1.0       0.5048898086285629  0.016082065386915145         0.4968805203582077 1.0000   
         C         C         1.0       0.531718970082818   0.025089930481822842         0.4835288737897704 1.0000   
         C         C         1.0       0.6124488402434429  0.011067254371457391         0.4517335894379412 1.0000   
         C         C         1.0       0.6209543872884435  0.9969533411635664  0.4310306207357576 1.0000   
         C         C         1.0       0.6017620739975938  0.9753938264090429  0.40933403399241564          1.0000   
         C         C         1.0       0.5734380978102604  0.9678826137705823  0.4105031392396195 1.0000   
         C         C         1.0       0.5646969168396038  0.9809685290895481  0.43161620222249064          1.0000   
         C         C         1.0       0.5842851484624764  0.003210743214205447         0.4528809726763416 1.0000   
         C         C         1.0       0.6130008054802938  0.9623917076171844  0.38263120749629276          1.0000   
         C         C         1.0       0.6427816226589913  0.020716640020671306         0.2961823666354423 1.0000   
         C         C         1.0       0.6624001663435847  0.025935009561075306         0.3224397471547257 1.0000   
         C         C         1.0       0.6531914122330421  0.007631606415903436         0.3502702831350114 1.0000   
         C         C         1.0       0.6242856850060056  0.984851557946578   0.35232043219166614          1.0000   
         C         C         1.0       0.605161320889594   0.9829690903839681  0.3283287815342353 1.0000   
         C         C         1.0       0.6143796148318826  0.999652839895639   0.29950013914317497          1.0000   
         C         C         1.0       0.5897498280942363  0.9312653249540604  0.36945492358601095          1.0000   
         C         C         1.0       0.5729601850744187  0.912469547677169   0.3940943561208647 1.0000   
         C         C         1.0       0.5527837997542175  0.8856099124552517  0.3854375205224722 1.0000   
         C         C         1.0       0.5487335129941797  0.8771682062261369  0.350357560440074  1.0000   
         C         C         1.0       0.5642740615251961  0.8955028890769572  0.3249655295201963 1.0000   
         C         C         1.0       0.5866275139262808  0.9216549470314174  0.3349340979767964 1.0000   
         C         C         1.0       0.6554813873560861  0.9560110560160278  0.37420307498562744          1.0000   
         C         C         1.0       0.6783532427711038  0.9546176034857765  0.3866996393187998 1.0000   
         C         C         1.0       0.6812804956989206  0.9517959925523485  0.4210864690588607 1.0000   
         C         C         1.0       0.6624193274139291  0.9522018598716733  0.4426932399616608 1.0000   
         C         C         1.0       0.6402284015054414  0.9530349495029837  0.4303227394943268 1.0000   
         C         C         1.0       0.6370337327486298  0.9569783311427628  0.39626006608291153          1.0000   
         H         H         1.0       0.5471631233452687  0.02446474651501784           0.4142588022790349 1.0000   
         H         H         1.0       0.6322370035512521  0.07113267926430189           0.45832770090017405          1.0000   
         H         H         1.0       0.6481520333903685  0.10705232107925816           0.41429544038872324          1.0000   
         H         H         1.0       0.5645489965968369  0.056275052583522965         0.365855066201081  1.0000   
         H         H         1.0       0.5349794807589425  0.9692854583995224  0.4969267537356256 1.0000   
         H         H         1.0       0.48513702990268676           0.949992917585464  0.5173986936724452 1.0000   
         H         H         1.0       0.49731965869166744           0.030188434012059506         0.4982647630174882 1.0000   
         H         H         1.0       0.5442608521578133  0.04646580967671721           0.4753724742297621 1.0000   
         H         H         1.0       0.629131616556076   0.030517896880133843         0.46495470668946004          1.0000   
         H         H         1.0       0.6438442929944148  0.0029651008381879063        0.4302607251909188 1.0000   
         H         H         1.0       0.5595896496914472  0.9540372410205282  0.38967068689778805          1.0000   
         H         H         1.0       0.5426003584834991  0.9747449748750189  0.43007767648624395          1.0000   
         H         H         1.0       0.6847052512322637  0.043160896774325774         0.3199221472450813 1.0000   
         H         H         1.0       0.6692961016575921  0.01302383488237191           0.370843667021802  1.0000   
         H         H         1.0       0.5830022868927491  0.966578955079224   0.3313056005738672 1.0000   
         H         H         1.0       0.5997454509551009  0.991777337068071   0.27687213124882193          1.0000   
         H         H         1.0       0.5744973329029093  0.9177919777834426  0.42002425415533995          1.0000   
         H         H         1.0       0.5412273161947416  0.8726049471589964  0.4071765674691965 1.0000   
         H         H         1.0       0.5641374931789795  0.8895920991251727  0.29726592264248386          1.0000   
         H         H         1.0       0.6010131753754052  0.9357550310638691  0.3160361749918782 1.0000   
         H         H         1.0       0.6540176165700442  0.9582382851197837  0.34593470436478124          1.0000   
         H         H         1.0       0.6931287179808509  0.9524515269929283  0.3702374026852056 1.0000   
         H         H         1.0       0.6634891185476305  0.9495777471068784  0.47130940476865063          1.0000   
         H         H         1.0       0.6225131618362767  0.9502130470984524  0.4463779997158141 1.0000   
         C         C         1.0       0.38317244777182996           0.27220070464006774          0.39929629849691256          1.0000   
         C         C         1.0       0.4123954032865953  0.2795124479705891  0.40108865186161435          1.0000   
         C         C         1.0       0.42454375342321404           0.27532117505745884          0.3735111662266765 1.0000   
         C         C         1.0       0.4076764361095164  0.26217083923129614           0.3433416009540869 1.0000   
         C         C         1.0       0.38013508966350423           0.2560888541400858 0.3416641869875384 1.0000   
         C         C         1.0       0.3672679064887195  0.26010289530278063           0.3696330960684651 1.0000   
         H         H         1.0       0.42616580203153065           0.291187125641625  0.4242199576486714 1.0000   
         H         H         1.0       0.4466380654904786  0.28165054678202917           0.3728343937265699 1.0000   
         H         H         1.0       0.3682192410005969  0.2503808171218505  0.31750165608889824          1.0000   
         H         H         1.0       0.3451189805869218  0.2549823953922638  0.36507266628763935          1.0000   
         C         C         1.0       0.38220446118764784           0.21443512365732187          0.2843178368460335 1.0000   
         C         C         1.0       0.4058804337569107  0.2413996802117253  0.2812310472960046 1.0000   
         C         C         1.0       0.4172529243273244  0.25011523835090443           0.24697810412500706          1.0000   
         C         C         1.0       0.4026008994709781  0.23387413812938032           0.22001729967710254          1.0000   
         C         C         1.0       0.380051957228784   0.20685712518342766           0.22368647181007523          1.0000   
         C         C         1.0       0.36888191869107745           0.19781527724773607          0.2559636892460354 1.0000   
         C         C         1.0       0.42472681223454195           0.2605341046656843 0.3123464174328201 1.0000   
         C         C         1.0       0.4400533661878484  0.2445373045485153  0.31995845699503234          1.0000   
         C         C         1.0       0.4629721457452703  0.24837094897032383           0.30055637828710774          1.0000   
         C         C         1.0       0.4717708203010753  0.2292794127612127  0.30284114423990055          1.0000   
         C         C         1.0       0.459102079953471   0.20691132938465    0.3242078014439227 1.0000   
         C         C         1.0       0.4378239206661553  0.20453188513846543           0.34501123811455636          1.0000   
         C         C         1.0       0.4281862782222199  0.22232994055614289           0.3437855601474937 1.0000   
         C         C         1.0       0.4307234115042972  0.3070145848949099  0.28878214585906825          1.0000   
         C         C         1.0       0.44422875621842417           0.3313422003181036 0.2724734136839752 1.0000   
         C         C         1.0       0.473253963139305   0.3439676412824118  0.2650642192641091 1.0000   
         C         C         1.0       0.4878767410163156  0.33228403458253136           0.28010796573866825          1.0000   
         C         C         1.0       0.4729493412545184  0.3076490800485472  0.2985375679875819 1.0000   
         C         C         1.0       0.4438133836945922  0.2929691863813407  0.3000954560065835 1.0000   
         C         C         1.0       0.48958589130636904           0.36748189041226814          0.2374148669538869 1.0000   
         C         C         1.0       0.4425532780819502  0.32093319617251603           0.14214142268214802          1.0000   
         C         C         1.0       0.4318763021152802  0.33343540580831044           0.16130737738013634          1.0000   
         C         C         1.0       0.4449939562721672  0.34764889119496944           0.19266238136136157          1.0000   
         C         C         1.0       0.46926089449956826           0.34839668579424804          0.20461731973335837          1.0000   
         C         C         1.0       0.4757873505327398  0.32977751134085326           0.18838501716667708          1.0000   
         C         C         1.0       0.46346221672954785           0.31836827447592897          0.15687816938636845          1.0000   
         C         C         1.0       0.5231018037548546  0.38200151064660604           0.2295763800193865 1.0000   
         C         C         1.0       0.5436183216482003  0.3909849684915879  0.2544063857867574 1.0000   
         C         C         1.0       0.5727125337726245  0.40044585971570257           0.24903608801409124          1.0000   
         C         C         1.0       0.5829642966790357  0.4023083611566517  0.21585990671034427          1.0000   
         C         C         1.0       0.5636727501809049  0.39801169888848487           0.18942772029416163          1.0000   
         C         C         1.0       0.534355286676288   0.3864026773377965  0.19557886854372092          1.0000   
         C         C         1.0       0.4819463707975428  0.4093422222703014  0.22764477224047353          1.0000   
         C         C         1.0       0.47750487983064677           0.4295702164694179 0.23993190043622561          1.0000   
         C         C         1.0       0.481704447495633   0.43572976865248525           0.2746080285395278 1.0000   
         C         C         1.0       0.4900446117190384  0.4217309938122173  0.296345588736521  1.0000   
         C         C         1.0       0.4933135685654892  0.40074628613890984           0.28230553777246253          1.0000   
         C         C         1.0       0.4882569406606741  0.3936270987347834  0.2487434507223428 1.0000   
         H         H         1.0       0.3719384884343271  0.20491561698838465           0.3092772304222147 1.0000   
         H         H         1.0       0.4370765328713142  0.27014342876877    0.24184905412951785          1.0000   
         H         H         1.0       0.41157150608224913           0.24232338999430653          0.1943738405994622 1.0000   
         H         H         1.0       0.35079340743847065           0.1752178531908161 0.25867703630507816          1.0000   
         H         H         1.0       0.4687919840096756  0.2611986056241335  0.27698592586525383          1.0000   
         H         H         1.0       0.4897154636818292  0.23343256413440214           0.2856128737147363 1.0000   
         H         H         1.0       0.428840486971165   0.18901434843436613           0.3642657865507998 1.0000   
         H         H         1.0       0.4095330922985405  0.21740813772843062           0.35843608915559466          1.0000   
         H         H         1.0       0.40888205284288315           0.29881174288122153          0.2953456943599576 1.0000   
         H         H         1.0       0.4311196045903569  0.33860837467355925           0.2632563584238718 1.0000   
         H         H         1.0       0.5112726941008038  0.3403204615289133  0.2779555578778746 1.0000   
         H         H         1.0       0.4859311153813658  0.3020224679284001  0.3117883689527732 1.0000   
         H         H         1.0       0.4119559708903046  0.3295962473813752  0.15105877245213556          1.0000   
         H         H         1.0       0.43563923266646337           0.3568988869888783 0.20763932580098618          1.0000   
         H         H         1.0       0.49397374527496973           0.3298467570057629 0.1949384802529707 1.0000   
         H         H         1.0       0.4702914325917494  0.30661989438908427           0.14193517885366794          1.0000   
         H         H         1.0       0.5390077815462084  0.3900961753208067  0.2826314832183778 1.0000   
         H         H         1.0       0.5886405734676532  0.40999962352148056           0.27141411972567614          1.0000   
         H         H         1.0       0.5728338064360897  0.40317804374101524           0.16412497807055015          1.0000   
         H         H         1.0       0.5192064499922197  0.381539313602015   0.17392683653532806          1.0000   
         H         H         1.0       0.47568023499084144           0.4040024570537514 0.20096628784135223          1.0000   
         H         H         1.0       0.47441565335874686           0.4432970949676419 0.22256754910751983          1.0000   
         H         H         1.0       0.49207045129622506           0.4267490815130703 0.32350519605666894          1.0000   
         H         H         1.0       0.5017444363854872  0.3904567300862067  0.29983570951047384          1.0000   
         C         C         1.0       0.2113712616881242  0.15278166257345543           0.5486770198272225 1.0000   
         C         C         1.0       0.23511740076621174           0.1726407686123033 0.5669865855315209 1.0000   
         C         C         1.0       0.2615540412451821  0.17711741732550146           0.5600874667368867 1.0000   
         C         C         1.0       0.2652887807350054  0.16154342443890246           0.5368904710404693 1.0000   
         C         C         1.0       0.24262618284335843           0.14280639365359196          0.5169311405772667 1.0000   
         C         C         1.0       0.21555872626454461           0.13826049615723102          0.522910437841415  1.0000   
         H         H         1.0       0.24835166200421327           0.15151109930339304          0.09678860089760276          1.0000   
         H         H         1.0       0.27956953899515635           0.19432303810125273          0.5756321070812009 1.0000   
         H         H         1.0       0.24417962320549602           0.12957094089408216          0.49693977898795927          1.0000   
         H         H         1.0       0.19651997745591707           0.1217330328351518 0.5104953718618476 1.0000   
         C         C         1.0       0.32970480505078453           0.1375799822406184 0.09428979464986952          1.0000   
         C         C         1.0       0.3126191864393015  0.1721150232322507  0.5665959311873162 1.0000   
         C         C         1.0       0.3685687573189242  0.17839579302437505           0.06963641545203009          1.0000   
         C         C         1.0       0.3834390235792656  0.18531425485038683           0.10051521041569597          1.0000   
         C         C         1.0       0.37104787005320633           0.17035092974193372          0.1290368905481216 1.0000   
         C         C         1.0       0.3437302204282143  0.14486388908284029           0.1256656211464009 1.0000   
         C         C         1.0       0.2972816607239143  0.17025353654147532           0.5294461295498124 1.0000   
         C         C         1.0       0.3107231063700304  0.1983624466833466  0.506288003117327  1.0000   
         C         C         1.0       0.2987271572513077  0.19575388762164941           0.4727165164888423 1.0000   
         C         C         1.0       0.30891620997564667           0.21849066674123932          0.4513692848789236 1.0000   
         C         C         1.0       0.3323690608792788  0.24428151803467818           0.46080838330216767          1.0000   
         C         C         1.0       0.34334517056399444           0.24695751947165334          0.49429555800102964          1.0000   
         C         C         1.0       0.33375427310430533           0.22518044719945135          0.5166018736511541 1.0000   
         C         C         1.0       0.28394110292173314           0.11939542130338973          0.5201368966090799 1.0000   
         C         C         1.0       0.2924814310771674  0.10145525914544591           0.5116939178806821 1.0000   
         C         C         1.0       0.3174475119132369  0.11097266303875697           0.491842131212467  1.0000   
         C         C         1.0       0.33412340828663356           0.1394236005297486 0.4817779888098271 1.0000   
         C         C         1.0       0.32693492478605785           0.1581318157165145 0.49188929637185996          1.0000   
         C         C         1.0       0.3015351006618816  0.14852743207743788           0.5103493408963078 1.0000   
         C         C         1.0       0.3302059606969437  0.09143052390704086           0.4840361595150617 1.0000   
         C         C         1.0       0.41097332522782376           0.08037412908951147          0.037660275796014275         1.0000   
         C         C         1.0       0.381676919167966   0.059052312315997495         0.037966706469393374         1.0000   
         C         C         1.0       0.3625877160818238  0.05628380382661455           0.011969863207816457         1.0000   
         C         C         1.0       0.3528683784195008  0.10181358922460466           0.515203412080843  1.0000   
         C         C         1.0       0.38236679367186394           0.1231054807776179 0.5153354667569648 1.0000   
         C         C         1.0       0.3993667679353721  0.1282720751609339  0.54378630607419   1.0000   
         C         C         1.0       0.3468384860274714  0.09456917516920996           0.44823524735995296          1.0000   
         C         C         1.0       0.3362631732284194  0.09938939049896398           0.4175146946037745 1.0000   
         C         C         1.0       0.3498477254914807  0.1026061159250813  0.3872505244756917 1.0000   
         C         C         1.0       0.37481337879791876           0.10291226869457573          0.38523716522331475          1.0000   
         C         C         1.0       0.3884189560971686  0.10211500512549732           0.4153269097762885 1.0000   
         C         C         1.0       0.3721642225965945  0.09403204324919132           0.4447409547536145 1.0000   
         C         C         1.0       0.3147668405701994  0.03937209601205005           0.4863601184820884 1.0000   
         C         C         1.0       0.29486568094907567           0.010216426805855994         0.4880098201643591 1.0000   
         C         C         1.0       0.26516307497280145           0.0005072990452810178        0.4828535544251701 1.0000   
         C         C         1.0       0.2584840650336968  0.019199175997869133         0.4732334420490225 1.0000   
         C         C         1.0       0.27898176668598257           0.047699633616661685         0.47130372376445673          1.0000   
         C         C         1.0       0.3068037502080151  0.058516701778153934         0.48172652658988613          1.0000   
         H         H         1.0       0.3080777373703234  0.11889196125443709           0.0914361645820648 1.0000   
         H         H         1.0       0.35823155682362423           0.20184595875324893          0.5518850546035873 1.0000   
         H         H         1.0       0.40372661365671403           0.20689738927959384          0.10280674512871074          1.0000   
         H         H         1.0       0.3351540721897739  0.1313060784451985  0.14715644787951573          1.0000   
         H         H         1.0       0.28150821567104095           0.17572767702022626          0.4623671054426271 1.0000   
         H         H         1.0       0.29829038598617463           0.21725655461751453          0.42912084028648473          1.0000   
         H         H         1.0       0.36455402392480785           0.26606815889286733          0.49855793595957465          1.0000   
         H         H         1.0       0.34802227972512484           0.2309281268521217 0.5395863883466057 1.0000   
         H         H         1.0       0.26697152957021314           0.11363613948595018          0.5391350438564627 1.0000   
         H         H         1.0       0.2803815339296747  0.08058764293104953           0.5235316993643802 1.0000   
         H         H         1.0       0.3555143821508362  0.1476974016167366  0.4709514077801579 1.0000   
         H         H         1.0       0.34208109962690025           0.18032344942103312          0.4870882946447002 1.0000   
         H         H         1.0       0.37354352980927796           0.04518478698856559          0.058712322663572285         1.0000   
         H         H         1.0       0.3405356348344302  0.04004200605377454           0.014243725455691527         1.0000   
         H         H         1.0       0.3900142681887633  0.1367720790723893  0.4929637816475076 1.0000   
         H         H         1.0       0.42159285246006256           0.1445059237062263 0.5437213726920881 1.0000   
         H         H         1.0       0.31756984417025663           0.1010327687235274 0.4164676637400783 1.0000   
         H         H         1.0       0.3408512287055521  0.1048521797753455  0.36278724792722833          1.0000   
         H         H         1.0       0.4088072862332291  0.10455144184429443           0.4146209201752942 1.0000   
         H         H         1.0       0.38177032121379345           0.08987050079000293          0.46570990297195564          1.0000   
         H         H         1.0       0.33713587984660265           0.046787842983699646         0.4913596505903038 1.0000   
         H         H         1.0       0.30091390316196903           0.9941995082061944 0.49278912062997154          1.0000   
         H         H         1.0       0.2370058225511468  0.012561098013747163         0.46833130353470626          1.0000   
         H         H         1.0       0.2719066614700346  0.06073787183172041           0.46249895278527003          1.0000   
         C         C         1.0       0.3728230646399662  0.28520899899325175           0.4269032150868009 1.0000   
         C         C         1.0       0.34032941579416986           0.26949039651625084          0.438171284547137  1.0000   
         H         H         1.0       0.38613310412129015           0.292442575313481  0.45063615213647795          1.0000   
         H         H         1.0       0.37789354345228426           0.30432933458189537          0.41546921276794474          1.0000   
         H         H         1.0       0.32709209881516527           0.26572909966439273          0.4141577754534479 1.0000   
         H         H         1.0       0.3365910929031887  0.28325076865896526           0.4549837547277231 1.0000   
         C         C         1.0       0.383747380055565   0.18086566629202291           0.16607932329731206          1.0000   
         C         C         1.0       0.3651319238846152  0.18673903722127447           0.19152180393166396          1.0000   
         H         H         1.0       0.4058499967431246  0.1998116815261897  0.16545664809885965          1.0000   
         H         H         1.0       0.3866469186739957  0.1642395068966216  0.17646889394147855          1.0000   
         H         H         1.0       0.3439565069516219  0.1663842356499967  0.19865646213271498          1.0000   
         H         H         1.0       0.3575022711397082  0.19720169869874868           0.1759169373803908 1.0000   
         C         C         1.0       0.4515561774161882  0.16277044607000088           0.29539207997190536          1.0000   
         C         C         1.0       0.4668423984598694  0.18508185653164602           0.3237467843270657 1.0000   
         H         H         1.0       0.4457069897656363  0.17067233604364593           0.27363961487908206          1.0000   
         H         H         1.0       0.43116010021473367           0.14693050983845676          0.3078071432408699 1.0000   
         H         H         1.0       0.46341435617110205           0.1756557248732244 0.34976552177081655          1.0000   
         H         H         1.0       0.489487649051303   0.1959383302524521  0.3190406103310699 1.0000   
         C         C         1.0       0.4319185559777884  0.08481782527997016           0.0653211495471624 1.0000   
         C         C         1.0       0.42595170338578514           0.09738446754738583          0.09571453471524709          1.0000   
         H         H         1.0       0.43105972187568214           0.06600520888680458          0.07063527058347029          1.0000   
         H         H         1.0       0.455004372281589   0.09893686532207631           0.059710196955992334         1.0000   
         H         H         1.0       0.40205284656130597           0.08469189933914593          0.1054432557732273 1.0000   
         H         H         1.0       0.4275131801678967  0.11719297284122894           0.08802847816182073          1.0000   
         C         C         1.0       0.5960849508292205  0.02917731911176946           0.0894594444036395 1.0000   
         C         C         1.0       0.6188899510708309  0.047608915020943554         0.11747843524299623          1.0000   
         H         H         1.0       0.596660048338376   0.010410342352948021         0.08891575637733191          1.0000   
         H         H         1.0       0.5734908143044221  0.021067476696532857         0.09976707137690942          1.0000   
         H         H         1.0       0.6403867631978077  0.0534101457526861  0.1073124279990568 1.0000   
         H         H         1.0       0.6155020282147695  0.03376844884465835           0.13967811780613842          1.0000   
         C         C         1.0       0.6301644831051448  0.09619285944129291           0.3304266073803504 1.0000   
         C         C         1.0       0.6156010716019737  0.10357521010142232           0.35866718351197124          1.0000   
         H         H         1.0       0.6521821898691755  0.10198617256782433           0.33841928998524357          1.0000   
         H         H         1.0       0.6168444037446541  0.07271534511827207           0.32702275268085795          1.0000   
         H         H         1.0       0.5949157579297054  0.10217291290023475           0.3495775803144743 1.0000   
         H         H         1.0       0.6300733554900652  0.12724685545582723           0.3677688393252195 1.0000   
         C         C         1.0       0.22643361870338183           0.9658178137492185 0.5238310976989845 1.0000   
         C         C         1.0       0.24265730298466462           0.9681397434702942 0.4897975123293663 1.0000   
         H         H         1.0       0.2128583647952118  0.9751243870316316  0.5212668854592374 1.0000   
         H         H         1.0       0.24832589262580798           0.9164891293751368 0.9104174692084873 1.0000   
         H         H         1.0       0.22707719964603632           0.9603522230941987 0.4672428682313476 1.0000   
         H         H         1.0       0.2543532254530397  0.9580128131496046  0.4934185618748232 1.0000   
         C         C         1.0       0.44358094367951495           0.995799253387854  0.5227586458467902 1.0000   
         C         C         1.0       0.4591689579093892  0.9793287825984925  0.5271597276347587 1.0000   
         H         H         1.0       0.45871180777554016           0.017977659010670388         0.529202434559472  1.0000   
         H         H         1.0       0.4276010755451349  0.9884191516492585  0.5414135090520487 1.0000   
         H         H         1.0       0.4602369947267075  0.9753284066801855  0.5553132777421438 1.0000   
         H         H         1.0       0.44348093420692103           0.9575358079089076 0.5178897413878164 1.0000   
         C         C         1.0       0.502257859412206   0.008406949292340649         0.31611850055371726          1.0000   
         C         C         1.0       0.5063270092975931  0.016810651380768427         0.27720776263542246          1.0000   
         H         H         1.0       0.5076225036641223  0.9923101417248741  0.3202179094515667 1.0000   
         H         H         1.0       0.5207834692753582  0.025617351605143668         0.3281470352475143 1.0000   
         H         H         1.0       0.49415847367618637           0.9974625904501206 0.2609717196820517 1.0000   
         H         H         1.0       0.5287649429681452  0.022264134049671647         0.2673334702245878 1.0000   
         C         C         1.0       0.3857135214266598  0.10375412813935972           0.34855334539924326          1.0000   
         C         C         1.0       0.3714805761023286  0.07418555389872483           0.33018486167581945          1.0000   
         H         H         1.0       0.3835607134171073  0.11860596467397802           0.3328062848837227 1.0000   
         H         H         1.0       0.40903285440209763           0.11029336202993323          0.34992458189752695          1.0000   
         H         H         1.0       0.3477432906880954  0.06306986640251266           0.3286577151198081 1.0000   
         H         H         1.0       0.3793045253117317  0.07823576195747273           0.30298472522792436          1.0000   
         C         C         1.0       0.2498892218958767  0.9308343520681837  0.2061654163912103 1.0000   
         C         C         1.0       0.22079476529640865           0.9281849146931139 0.1968437399501267 1.0000   
         H         H         1.0       0.267895319605538   0.9518159138430167  0.20115472072271187          1.0000   
         H         H         1.0       0.25187532311301064           0.9166732334112994 0.18635834147172073          1.0000   
         H         H         1.0       0.22180781458655313           0.9489646433641602 0.20106821190497318          1.0000   
         H         H         1.0       0.20340443940130276           0.9117475123198927 0.21385533356582856          1.0000   
         C         C         1.0       0.19494395530684033           0.8628577208636327 0.44592111862726813          1.0000   
         C         C         1.0       0.19839226982925576           0.8386913831287748 0.46037489926434233          1.0000   
         H         H         1.0       0.2033000467696801  0.8801285802002029  0.46477989413077236          1.0000   
         H         H         1.0       0.17100548234023238           0.8542530813572138 0.4429000300269141 1.0000   
         H         H         1.0       0.18917489126513307           0.820506490977809  0.44290436321250853          1.0000   
         H         H         1.0       0.22224381473063987           0.8476790455830964 0.4621421642993153 1.0000   
         C         C         1.0       0.18008956871916987           0.16893320121546018          0.5299882738151644 1.0000   
         C         C         1.0       0.1826029099999702  0.14924698718297225           0.5536282119610275 1.0000   
         H         H         1.0       0.15808236565645653           0.16420818259864045          0.5302523172421328 1.0000   
         H         H         1.0       0.18416078007469713           0.16740666892268968          0.5020765028042481 1.0000   
         H         H         1.0       0.16416986527825153           0.128006612838089  0.5476242503537231 1.0000   
         H         H         1.0       0.17708603959192737           0.15110838307832858          0.5800925807973347 1.0000   
         C         C         1.0       0.3987885385854466  0.28101880692209097           0.10657353992636003          1.0000   
         C         C         1.0       0.43005621594128896           0.3076614884213007 0.10638670965112677          1.0000   
         H         H         1.0       0.397905249915312   0.2651787263154999  0.08919016668872773          1.0000   
         H         H         1.0       0.39495984818439456           0.2725596259244152 0.13199485365203498          1.0000   
         H         H         1.0       0.43087437949732854           0.32390162166092495          0.0899349873455536 1.0000   
         H         H         1.0       0.4430821606811644  0.3000510399784159  0.09397893989471358          1.0000   
         C         C         1.0       0.27055615087525925           0.40113555316844984          0.28598346016960985          1.0000   
         C         C         1.0       0.2828870454000521  0.3841452630501544  0.2734392555876589 1.0000   
         H         H         1.0       0.24677190749703495           0.3885164023330825 0.2860184587790579 1.0000   
         H         H         1.0       0.2807256346974705  0.42028243471848625           0.2685425070861577 1.0000   
         H         H         1.0       0.2720424562012703  0.3645481184309737  0.2886126548268213 1.0000   
         H         H         1.0       0.3057337345881425  0.3937040024298635  0.2779055576400274 1.0000   
         C         C         1.0       0.3384419433418209  0.47807100176197226           0.5581589119007222 1.0000   
         C         C         1.0       0.3234055281864487  0.48992657003795875           0.5387938969661272 1.0000   
         H         H         1.0       0.35096093349155105           0.493381961504078  0.5777989098037849 1.0000   
         H         H         1.0       0.3561901023633023  0.47966000991709395           0.5433506482472243 1.0000   
         H         H         1.0       0.3060776464359938  0.48763298912164266           0.5555357754344182 1.0000   
         H         H         1.0       0.33567379802535585           0.5124004585116264 0.5335246167292599 1.0000   
         C         C         1.0       0.14497120394155286           0.3217656513210672 0.02557765917424626          1.0000   
         C         C         1.0       0.14173883221470115           0.3102661013092421 0.06376688421655843          1.0000   
         H         H         1.0       0.1556226065932871  0.3126723478018798  0.010570237711100328         1.0000   
         H         H         1.0       0.15976471876281675           0.3452267203038026 0.025197007905990443         1.0000   
         H         H         1.0       0.130638325777046   0.2870841936406705  0.06505897154464772          1.0000   
         H         H         1.0       0.12849649659618342           0.3138077242259569 0.08151153696819992          1.0000   
         C         C         1.0       0.06590516086968395           0.31592287034898336          0.3715704380240323 1.0000   
         C         C         1.0       0.09946348595111142           0.32984923815723466          0.36926329977475686          1.0000   
         H         H         1.0       0.05480477518941984           0.29419988729864005          0.36018793131562515          1.0000   
         H         H         1.0       0.05915656244127593           0.3272215489157692 0.3554456738586936 1.0000   
         H         H         1.0       0.1013130747440662  0.3205293781863694  0.34426937977638283          1.0000   
         H         H         1.0       0.10887574433998648           0.32485562885218056          0.39006460698465856          1.0000   
         C         C         1.0       0.713183665085044   0.25423879691966716           0.17473529685237219          1.0000   
         C         C         1.0       0.7399309709584007  0.25600271119892337           0.19227957668925003          1.0000   
         H         H         1.0       0.7177929522114146  0.26022990496040194           0.14649219347537643          1.0000   
         H         H         1.0       0.7109212428136634  0.2705905432825535  0.18546992531706627          1.0000   
         H         H         1.0       0.7434488473492746  0.2645281560379973  0.21900135724404618          1.0000   
         H         H         1.0       0.7601385813187266  0.27356989701263895           0.17854957009693298          1.0000   
         C         C         1.0       0.6535990409931501  0.06206097333838722           0.25817121299819795          1.0000   
         C         C         1.0       0.6560950064241546  0.03582653779587819           0.2630152376758202 1.0000   
         H         H         1.0       0.6476702778486116  0.06842739091857801           0.28258872786188854          1.0000   
         H         H         1.0       0.6336059537821229  0.05429315944668872           0.24221340011139486          1.0000   
         H         H         1.0       0.64530756192017    0.022407059381924554         0.23980499186028364          1.0000   
         H         H         1.0       0.6790664730161449  0.04232732354514142           0.2608783635015728 1.0000   
         C         C         1.0       0.8497932340795672  0.1601827239938172  0.4346716062327113 1.0000   
         C         C         1.0       0.8776151499839417  0.17789761510530266           0.41504982519948946          1.0000   
         H         H         1.0       0.8375313922307142  0.14004692936840996           0.4209938736257572 1.0000   
         H         H         1.0       0.8368296105088866  0.17044681057549596           0.43609985322070566          1.0000   
         H         H         1.0       0.8899459969853095  0.19851114468110284           0.4292923109100729 1.0000   
         H         H         1.0       0.8896333979521147  0.16731910611436482           0.4173209152741507 1.0000   
         C         C         1.0       0.9331317468022958  0.15066503185350816           0.16146491431114146          1.0000   
         C         C         1.0       0.9099892012797459  0.13119005338117595           0.18767676933709107          1.0000   
         H         H         1.0       0.9466313404648095  0.1428958900600896  0.15695434716391995          1.0000   
         H         H         1.0       0.9488430260351132  0.1716521177185391  0.17383319461410016          1.0000   
         H         H         1.0       0.9192715096581657  0.12532756771135511           0.20667100903504976          1.0000   
         H         H         1.0       0.8933002066143007  0.11208183673785284           0.17324793941886632          1.0000   
         C         C         1.0       0.9794028680331291  0.7305562123014006  0.08383147117723617          1.0000   
         C         C         1.0       0.9890914949108549  0.7099355910052692  0.07782317000234387          1.0000   
         H         H         1.0       0.956971148871951   0.7202639838275966  0.07471914197656272          1.0000   
         H         H         1.0       0.9772017277948302  0.7325892910504708  0.11194986864915836          1.0000   
         H         H         1.0       0.011558809413822146          0.7195287343172314 0.07136978942967181          1.0000   
         H         H         1.0       0.9776606579090467  0.6955097142651351  0.05519696205894009          1.0000   
         C         C         1.0       0.981138208950853   0.8795006602304513  0.4656443773414491 1.0000   
         C         C         1.0       0.006644777630752552          0.8876268437241204 0.492019365170476  1.0000   
         H         H         1.0       0.9780784974249572  0.8967286060272266  0.46076168288131175          1.0000   
         H         H         1.0       0.9892056885070145  0.8771255496286205  0.4400716382614877 1.0000   
         H         H         1.0       0.004584572186918656          0.8969749772975195 0.5155912069975098 1.0000   
         H         H         1.0       0.0266764169846474  0.9032308780370807  0.47876190683843267          1.0000   
         C         C         1.0       0.9408240278140906  0.7027164798487876  0.4319646740394295 1.0000   
         C         C         1.0       0.925069536106217   0.6811593028242563  0.4044697861117954 1.0000   
         H         H         1.0       0.9611370396586402  0.7184797791967182  0.42055937772642155          1.0000   
         H         H         1.0       0.9456614783762076  0.6957147264567951  0.45368467363153403          1.0000   
         H         H         1.0       0.9028449479802982  0.6693560203309399  0.41278466246512246          1.0000   
         H         H         1.0       0.9320498574694978  0.6656173857294644  0.40959006906471246          1.0000   
         C         C         1.0       0.9786794561179727  0.8152354154034165  0.16747838267151138          1.0000   
         C         C         1.0       0.9996771031286183  0.8085255074611071  0.18480107540929894          1.0000   
         H         H         1.0       0.9923075460571009  0.8389957672763083  0.16211608004081682          1.0000   
         H         H         1.0       0.9630858734438235  0.8144953075161195  0.1859182240225739 1.0000   
         H         H         1.0       0.015020152518930407          0.824181237321018  0.20452438803812056          1.0000   
         H         H         1.0       0.012524619731060671          0.8093027929684191 0.1622194385797531 1.0000   
         C         C         1.0       0.2711421659022614  0.776873587086379   0.32359103981082143          1.0000   
         C         C         1.0       0.29641417215797716           0.8047636672760858 0.34088855991667055          1.0000   
         H         H         1.0       0.2727327767520698  0.7591402480507478  0.32910407292385   1.0000   
         H         H         1.0       0.2732172229746626  0.7773215823370568  0.2954726266659414 1.0000   
         H         H         1.0       0.3177673470552457  0.811021413406889   0.3307627828988421 1.0000   
         H         H         1.0       0.297387966134076   0.7991018900614432  0.36675798272486654          1.0000   
         C         C         1.0       0.11369478334041852           0.80406635040702   0.3928714171087397 1.0000   
         C         C         1.0       0.08209855659306041           0.7879073568558644 0.4048081614789217 1.0000   
         H         H         1.0       0.11753543574645463           0.8170317372216802 0.36999231139367916          1.0000   
         H         H         1.0       0.12797590721943614           0.8194491845057457 0.4116834163926883 1.0000   
         H         H         1.0       0.07310997533908341           0.7652905248934503 0.3986950606148555 1.0000   
         H         H         1.0       0.0680242064880546  0.7907834282741514  0.3882652550465004 1.0000   
         C         C         1.0       0.11262610626865291           0.5317792044605698 0.39158573532308805          1.0000   
         C         C         1.0       0.11844853811109235           0.5162130265336156 0.4202694379625447 1.0000   
         H         H         1.0       0.13221737154444047           0.5413440033800541 0.37275962035748783          1.0000   
         H         H         1.0       0.09448805291730988           0.5132826597002931 0.37516919663788484          1.0000   
         H         H         1.0       0.10147111044724717           0.5044494955234183 0.4390911620511607 1.0000   
         H         H         1.0       0.1346264087827228  0.5348815981473196  0.4343320769924194 1.0000   
         C         C         1.0       0.06327604818115762           0.6315621700184099 0.2342214995555272 1.0000   
         C         C         1.0       0.09089850760337266           0.6632518060626184 0.23043899585486582          1.0000   
         H         H         1.0       0.060960073905474976          0.6239740826477402 0.2617612991038361 1.0000   
         H         H         1.0       0.06838558409424315           0.6193763664096479 0.2192120082880194 1.0000   
         H         H         1.0       0.08590541714043745           0.6750819360889828 0.2122228295456866 1.0000   
         H         H         1.0       0.10690992572168062           0.6613559254138716 0.21687523199629785          1.0000   
         C         C         1.0       0.9514958317937208  0.33095498516518385           0.23323697162057816          1.0000   
         C         C         1.0       0.958275384563919   0.3090784364842553  0.22111719656055911          1.0000   
         H         H         1.0       0.9503270081385622  0.33183288210465944           0.2601849039906067 1.0000   
         H         H         1.0       0.9270869462348799  0.31924194479209644           0.22606604092058546          1.0000   
         H         H         1.0       0.9801605388070395  0.3152196285686019  0.23094134291423124          1.0000   
         H         H         1.0       0.9591298789483556  0.30966131038362116           0.19243754753885395          1.0000   
         C         C         1.0       0.007294489143389926          0.3792042728178912 0.04119437933749226          1.0000   
         C         C         1.0       0.9857523896269749  0.34757441624464513           0.051000726070467024         1.0000   
         H         H         1.0       0.0006488920308393986         0.3869404097480336 0.020034370104284438         1.0000   
         H         H         1.0       0.9645240959763682  0.3710164408062782  0.5236516339632415 1.0000   
         H         H         1.0       0.9842559390623694  0.3445450919125365  0.08088912727135465          1.0000   
         H         H         1.0       0.9151430491496035  0.319505889623014   0.5316989961134121 1.0000   
         C         C         1.0       0.8754813089938394  0.4856486215403352  0.1312192014860711 1.0000   
         C         C         1.0       0.8693857345171774  0.505375935856101   0.15229609917249398          1.0000   
         H         H         1.0       0.874383932882313   0.48977958704617125           0.10307458468099709          1.0000   
         H         H         1.0       0.858232079553171   0.4638273051194568  0.1351668191308554 1.0000   
         H         H         1.0       0.8510037304469303  0.5044922780595998  0.1382651592460881 1.0000   
         H         H         1.0       0.8599352080165791  0.4939922214708832  0.1775251766374527 1.0000   
         C         C         1.0       0.16667727209130478           0.5071099833407671 0.22443279057174617          1.0000   
         C         C         1.0       0.1461462220049619  0.5173977565893793  0.22892835709706566          1.0000   
         H         H         1.0       0.1889102254883919  0.5236535860982581  0.2206049336878746 1.0000   
         H         H         1.0       0.15896958053265928           0.49211054130098536          0.20194317150362404          1.0000   
         H         H         1.0       0.15646659679850639           0.5378623819812764 0.21775937186969502          1.0000   
         H         H         1.0       0.14608979138536382           0.5257259122446261 0.25621338178036335          1.0000   
         C         C         1.0       0.07625170692343987           0.6310128504010297 0.10209204926197293          1.0000   
         C         C         1.0       0.04613555645318325           0.5941004077668185 0.5672509002276749 1.0000   
         H         H         1.0       0.062403785295956304          0.6377941269697075 0.08880716752081658          1.0000   
         H         H         1.0       0.08624744991474838           0.6491094942984031 0.12060910374194085          1.0000   
         H         H         1.0       0.022247440844727073          0.5785286679931444 0.5612623595689469 1.0000   
         H         H         1.0       0.05604379153066217           0.5825061395187779 0.5731648625839769 1.0000   
         C         C         1.0       0.965262355988571   0.542166582959853   0.3156902977831652 1.0000   
         C         C         1.0       0.9780935970757578  0.5698716259573927  0.33536182010356047          1.0000   
         H         H         1.0       0.9419393517750759  0.5335338826578906  0.31225408741623023          1.0000   
         H         H         1.0       0.9634231232568407  0.5259319579971918  0.3305330498096201 1.0000   
         H         H         1.0       0.9805621935556253  0.5861401291468025  0.31760458043432893          1.0000   
         H         H         1.0       0.96146813943351    0.5687767195535355  0.35336097918672327          1.0000   
         C         C         1.0       0.9414166052891801  0.07608517340073254           0.5243224179175966 1.0000   
         C         C         1.0       0.9605665829518105  0.09991298504557501           0.49663437810433475          1.0000   
         H         H         1.0       0.9535517410011711  0.08051653369919105           0.5487002973747144 1.0000   
         H         H         1.0       0.9396259389822204  0.05593807950150522           0.5165034597190514 1.0000   
         H         H         1.0       0.9822460636611172  0.10331528951786807           0.496313914595893  1.0000   
         H         H         1.0       0.9535923319801132  0.09401750814083282           0.4694952221767328 1.0000   
         C         C         1.0       0.8421066903837132  0.15141600071913947           0.09680181350006226          1.0000   
         C         C         1.0       0.8183742064289776  0.15578435636104043           0.08837185241244777          1.0000   
         H         H         1.0       0.8468093071554621  0.1547983691485808  0.12741244325077294          1.0000   
         H         H         1.0       0.8632677140629829  0.16745785016170017           0.08363302919905481          1.0000   
         H         H         1.0       0.80424132551709    0.139904051991138   0.06829540745312562          1.0000   
         H         H         1.0       0.8296676271704693  0.1747149926858802  0.07155663491492835          1.0000   
         C         C         1.0       0.7552534550966548  0.8476852052621755  0.5362361184156462 1.0000   
         C         C         1.0       0.7616579369856383  0.8262731183457566  0.10910212800661719          1.0000   
         H         H         1.0       0.7340282207863476  0.832987559862518   0.5245512630375789 1.0000   
         H         H         1.0       0.768567327562019   0.8560969535729084  0.512329962741012  1.0000   
         H         H         1.0       0.7429624213169916  0.8121097995041642  0.12452940658566439          1.0000   
         H         H         1.0       0.7798661776292084  0.841957961499405   0.12922405667451237          1.0000   
         C         C         1.0       0.7070640891056457  0.950659659036895   0.4353643874660044 1.0000   
         C         C         1.0       0.7382702290341402  0.9781684569175967  0.42955972016638866          1.0000   
         H         H         1.0       0.7028159912907274  0.9447297873583944  0.46239433192118756          1.0000   
         H         H         1.0       0.7061423417667235  0.9329204981345203  0.4240146825151635 1.0000   
         H         H         1.0       0.7497486293979372  0.974116428163466   0.40897369649423687          1.0000   
         H         H         1.0       0.737024436334203   0.9962885682003423  0.4188596761954338 1.0000   
         C         C         1.0       0.5208619863504964  0.8473700197391106  0.342896826062722  1.0000   
         C         C         1.0       0.5286637792063833  0.8298561784935831  0.3195044180789029 1.0000   
         H         H         1.0       0.5041348926497282  0.8493593080671671  0.3283724324405913 1.0000   
         H         H         1.0       0.5116015744688931  0.8361387699701991  0.36618368074781155          1.0000   
         H         H         1.0       0.5324336211808672  0.8385094216710282  0.2941160488174712 1.0000   
         H         H         1.0       0.5097767719349265  0.8068587822854281  0.31676805191132446          1.0000   
         C         C         1.0       0.8056910921848027  0.832964700627687   0.3518915594234696 1.0000   
         C         C         1.0       0.7941675781998762  0.850704369893545   0.3624230284487737 1.0000   
         H         H         1.0       0.828158446013147   0.8469591430430812  0.342499907450281  1.0000   
         H         H         1.0       0.7958251873016576  0.8212370747777685  0.32695049164780576          1.0000   
         H         H         1.0       0.801067508672048   0.8589098136299889  0.38930360922887924          1.0000   
         H         H         1.0       0.8047888371303019  0.8702398348159626  0.347706108120685  1.0000   
         C         C         1.0       0.7372756851372775  0.9630160350077492  0.3031963615961928 1.0000   
         C         C         1.0       0.7597098598147155  0.9646339167847425  0.2804420461533567 1.0000   
         H         H         1.0       0.7276993194001932  0.9735633765565126  0.28911944281876545          1.0000   
         H         H         1.0       0.7491576787826689  0.9777368416972679  0.3262285275451043 1.0000   
         H         H         1.0       0.7676863077134023  0.9525769319194923  0.2949928602145332 1.0000   
         H         H         1.0       0.7772548903837921  0.9870734420317604  0.27930313520970684          1.0000   
         C         C         1.0       0.6256370013294665  0.8946982457544294  0.5241587999715125 1.0000   
         C         C         1.0       0.6181541587729414  0.8697249179269984  0.5011708602346485 1.0000   
         H         H         1.0       0.6299856539509422  0.9143583990979588  0.5094714427946212 1.0000   
         H         H         1.0       0.609002572636194   0.8885516347815464  0.5439675944497531 1.0000   
         H         H         1.0       0.5953373600883305  0.8581868687592118  0.49540733849383994          1.0000   
         H         H         1.0       0.623258118376245   0.8569389772439645  0.5173124835593058 1.0000   
         C         C         1.0       0.35854616453482796           0.5825979514622289 0.35380767868309454          1.0000   
         C         C         1.0       0.3851254486381017  0.5794876091215864  0.3523955578368895 1.0000   
         H         H         1.0       0.35585807410741627           0.5901858559061038 0.3262652892244326 1.0000   
         H         H         1.0       0.363744021560026   0.6003234535220195  0.37305780964715524          1.0000   
         H         H         1.0       0.40508449618126674           0.598357702068453  0.3591304416102138 1.0000   
         H         H         1.0       0.3896066911266903  0.5804093353081426  0.3247613115374377 1.0000   
         C         C         1.0       0.31132562916474665           0.39175041635225616          0.46839469611765794          1.0000   
         C         C         1.0       0.3220488814996462  0.3729811864390027  0.4558350360547238 1.0000   
         H         H         1.0       0.3148166992529529  0.394154211513282   0.49684812160265696          1.0000   
         H         H         1.0       0.28832910133909173           0.38347226450443317          0.461524388389845  1.0000   
         H         H         1.0       0.34707541875289455           0.38483338157586433          0.45670981589896525          1.0000   
         H         H         1.0       0.3162573235437182  0.3673949856817783  0.4280982408913843 1.0000   
         C         C         1.0       0.6197703789439065  0.6467175730768824  0.42868243348689167          1.0000   
         C         C         1.0       0.6245314197427293  0.6725025329567877  0.4485979540854132 1.0000   
         H         H         1.0       0.6185457815331413  0.6497256760202442  0.4020193267070435 1.0000   
         H         H         1.0       0.6388917567143368  0.6448740804701159  0.4309866183256603 1.0000   
         H         H         1.0       0.6398184445412435  0.676767391898228   0.4699672191681936 1.0000   
         H         H         1.0       0.6044087925584454  0.6687187005880694  0.4591479984621    1.0000   
         C         C         1.0       0.47977611351739474           0.45953471463414663          0.29174704028585974          1.0000   
         C         C         1.0       0.4536505833044226  0.4608164581836966  0.2820887776807146 1.0000   
         H         H         1.0       0.49909847406408    0.4797122389525449  0.2832312819230666 1.0000   
         H         H         1.0       0.48065826191602135           0.45760760919758636          0.3205936692565854 1.0000   
         H         H         1.0       0.43841233476546737           0.4425336987287549 0.2650247732546359 1.0000   
         H         H         1.0       0.4608266971381965  0.47900778840313873           0.2653466825954071 1.0000   
         C         C         1.0       0.8204334793543735  0.6879435918753802  0.19369068703771533          1.0000   
         C         C         1.0       0.7947766076039231  0.6647150035980878  0.2151260837669497 1.0000   
         H         H         1.0       0.8220319528502529  0.7083036687840251  0.1916473213903315 1.0000   
         H         H         1.0       0.8155643446022698  0.6800130683041083  0.16695014984343154          1.0000   
         H         H         1.0       0.7930953367533727  0.6709006223428796  0.24126123237062577          1.0000   
         H         H         1.0       0.7978884368209669  0.6471782563841167  0.21945140844365457          1.0000   
         C         C         1.0       0.7153549161377218  0.6307677093453066  0.017462449095997593         1.0000   
         C         C         1.0       0.7479822195474991  0.6472721998969095  0.019568611315520013         1.0000   
         H         H         1.0       0.672912367637236   0.6497561733458964  0.4622754943818333 1.0000   
         H         H         1.0       0.6542340888559073  0.6134003064248679  0.4661785327124376 1.0000   
         H         H         1.0       0.7041058979060059  0.6292007263979057  0.4460365171021094 1.0000   
         H         H         1.0       0.7574306632903319  0.641279223865989   0.0417254538207652 1.0000   
         C         C         1.0       0.6321689832267856  0.4344178001759626  0.18342615511442514          1.0000   
         C         C         1.0       0.6142992692675872  0.4108382113298836  0.21183410127436694          1.0000   
         H         H         1.0       0.6550329921489143  0.43986455115381473           0.1816669351395517 1.0000   
         H         H         1.0       0.6262488282947398  0.42626627381232496           0.15625458016657004          1.0000   
         H         H         1.0       0.6256948220036999  0.4161996835713116  0.23569393996430849          1.0000   
         H         H         1.0       0.6133848202815492  0.39205492230776046           0.2036914225842205 1.0000   
         C         C         1.0       0.6352651871405979  0.7015248397417633  0.21845225262464424          1.0000   
         C         C         1.0       0.6191333542262277  0.6686718279062253  0.22164331624109843          1.0000   
         H         H         1.0       0.6539991646624932  0.7109507440555756  0.19985276551736425          1.0000   
         H         H         1.0       0.6178783444127885  0.7030731421234472  0.20616030407506197          1.0000   
         H         H         1.0       0.5969437362725301  0.6566325066395301  0.2143136196527385 1.0000   
         H         H         1.0       0.6172634434930063  0.6646701918785035  0.24862710852865355          1.0000   
         C         C         1.0       0.4634709408940217  0.495631020891989   0.5999456866110742 1.0000   
         C         C         1.0       0.5013518490459821  0.49181936008133254           0.12179840033725052          1.0000   
         H         H         1.0       0.46724627683044967           0.5131142608391415 0.616846275456265  1.0000   
         H         H         1.0       0.4411001476277599  0.4889907910889517  0.5897074967779141 1.0000   
         H         H         1.0       0.4795808254810767  0.47397810851288524           0.11374668686659697          1.0000   
         H         H         1.0       0.5000271044707696  0.5094980911386859  0.12346522494999705          1.0000   
         C         C         1.0       0.5941660396145654  0.4914360109534081  0.367779367608945  1.0000   
         C         C         1.0       0.5695235647484278  0.47927470781145626           0.39399522610141635          1.0000   
         H         H         1.0       0.6036609261672196  0.4786940854666134  0.36554815203293567          1.0000   
         H         H         1.0       0.6116178326196866  0.5116339197897483  0.37585825713672794          1.0000   
         H         H         1.0       0.5748518866815698  0.47088913526679804           0.4152931898483389 1.0000   
         H         H         1.0       0.5498340800199998  0.4619608341882068  0.38180719045711004          1.0000   
         C         C         1.0       0.6012239646930817  0.44448921419889625           0.6482214961981168 1.0000   
         C         C         1.0       0.5823740613804661  0.44695665871268325           0.6273302570874967 1.0000   
         C         C         1.0       0.578042916116098   0.46934412066930464           0.6331811300467873 1.0000   
         C         C         1.0       0.5883058869264853  0.48569489233296276           0.6638933807127397 1.0000   
         C         C         1.0       0.6116654862477301  0.4857159244932148  0.6785533202352043 1.0000   
         C         C         1.0       0.6181880493873463  0.4659736172120041  0.6713396493681922 1.0000   
         H         H         1.0       0.5719203689793404  0.4319315498889031  0.6049943078138654 1.0000   
         H         H         1.0       0.5621665995778032  0.46852286590017034           0.6147016958640541 1.0000   
         H         H         1.0       0.6214120168474419  0.498069495504293   0.7017396664715071 1.0000   
         H         H         1.0       0.634438561175682   0.4672515805687917  0.6879724666557318 1.0000   
         C         C         1.0       0.5591426907338578  0.4703840807692742  0.7344080241596755 1.0000   
         C         C         1.0       0.5695316064725704  0.4968897125091941  0.7207737584607411 1.0000   
         C         C         1.0       0.5757730252347906  0.5180796374928284  0.7442796190124237 1.0000   
         C         C         1.0       0.5762562330587078  0.5144280865073285  0.7792954089825053 1.0000   
         C         C         1.0       0.5702036669195656  0.48880225871040656           0.7909882852249317 1.0000   
         C         C         1.0       0.557642197072521   0.4662512895590274  0.7689313688057198 1.0000   
         C         C         1.0       0.5726369619234406  0.5009294301455357  0.6806592512662983 1.0000   
         C         C         1.0       0.5405568583991286  0.4904425907938134  0.6709243086625749 1.0000   
         C         C         1.0       0.5307209913651912  0.5081673185445333  0.6734820337354619 1.0000   
         C         C         1.0       0.5054099531437949  0.5020941354281396  0.6584992630765997 1.0000   
         C         C         1.0       0.4870040170878746  0.47680315828987224           0.6428214711286842 1.0000   
         C         C         1.0       0.49425264677353703           0.4564891749565578 0.6433126611263387 1.0000   
         C         C         1.0       0.5206843945345662  0.4633026005621499  0.6590010530361723 1.0000   
         C         C         1.0       0.6207413435740914  0.5518008163288999  0.6840438657625343 1.0000   
         C         C         1.0       0.6387933588365469  0.5786563960057561  0.6730175781322156 1.0000   
         C         C         1.0       0.6356608200357445  0.5881148339114141  0.6419746622723579 1.0000   
         C         C         1.0       0.6114289726254658  0.5696843551401813  0.6231620919901325 1.0000   
         C         C         1.0       0.5916326925035338  0.5425030055088714  0.6339267785183151 1.0000   
         C         C         1.0       0.59520627851115    0.5332904096041834  0.6657412915396718 1.0000   
         C         C         1.0       0.6582198968070706  0.618076221149845   0.6270382295421744 1.0000   
         C         C         1.0       0.6333102659378147  0.6661399826260397  0.6920165781276123 1.0000   
         C         C         1.0       0.6529594318465918  0.6607027060700433  0.7038424225840931 1.0000   
         C         C         1.0       0.6623223750508889  0.6467308148420425  0.6838003269871337 1.0000   
         C         C         1.0       0.6490937567204301  0.6352946769465159  0.650627938078493  1.0000   
         C         C         1.0       0.6283410177004569  0.6401106460770241  0.640994366442048  1.0000   
         C         C         1.0       0.6213833257310101  0.6571891273589494  0.6589118690615771 1.0000   
         C         C         1.0       0.6580086749908042  0.6209954066398506  0.5860299599369504 1.0000   
         C         C         1.0       0.6577625027264901  0.60039346347193    0.5636039525620916 1.0000   
         C         C         1.0       0.6623209725995782  0.6055303532623194  0.5298161109189774 1.0000   
         C         C         1.0       0.6672630034042853  0.6296254177951951  0.5151561583038492 1.0000   
         C         C         1.0       0.6690779392213485  0.650730763117515   0.5363391087846568 1.0000   
         C         C         1.0       0.6626289164312666  0.6453783154133678  0.5708572415823514 1.0000   
         C         C         1.0       0.7127672050278729  0.6549634784733649  0.6368126930626983 1.0000   
         C         C         1.0       0.7420011941400897  0.6641839917291473  0.6447753091656736 1.0000   
         C         C         1.0       0.7501865578112606  0.6444956036029954  0.6429646573373092 1.0000   
         C         C         1.0       0.7279196729893503  0.616807551061104   0.6380311010313925 1.0000   
         C         C         1.0       0.7002321117513797  0.6085191414391833  0.6298565724230647 1.0000   
         C         C         1.0       0.6909901413839833  0.6268970341067661  0.6320845376749074 1.0000   
         H         H         1.0       0.5522275688116528  0.453131373003051   0.7169049654113989 1.0000   
         H         H         1.0       0.5767416599600734  0.5361968339649711  0.7365748053012025 1.0000   
         H         H         1.0       0.5819177028841341  0.531608691048975   0.796399218524594  1.0000   
         H         H         1.0       0.5497986981888915  0.4459777584430929  0.7779755265847679 1.0000   
         H         H         1.0       0.5432420624933912  0.5302319831831959  0.6829195046306216 1.0000   
         H         H         1.0       0.5026637168882724  0.5191407888920149  0.6567263074034876 1.0000   
         H         H         1.0       0.47978560871348525           0.43640405072900496          0.6319604108941267 1.0000   
         H         H         1.0       0.5262028798471019  0.4473970006513359  0.6576798869464366 1.0000   
         H         H         1.0       0.6246566901725324  0.5433399150412714  0.7076463830539726 1.0000   
         H         H         1.0       0.6570327414910268  0.5914284369231169  0.6895309226714422 1.0000   
         H         H         1.0       0.6060042332920974  0.5746368484375156  0.598008441531137  1.0000   
         H         H         1.0       0.5740991830931766  0.5307756053266057  0.6178668615864324 1.0000   
         H         H         1.0       0.664848191269586   0.6694166674339582  0.7287263519073087 1.0000   
         H         H         1.0       0.6779779058643632  0.6435766589705947  0.6962215716408436 1.0000   
         H         H         1.0       0.617898648058803   0.6303711817718576  0.6160211490887066 1.0000   
         H         H         1.0       0.6041921598310163  0.6605816414351774  0.6495821636958781 1.0000   
         H         H         1.0       0.6564703513809664  0.5824404248304442  0.5738298778056112 1.0000   
         H         H         1.0       0.6661794667194039  0.5914126733306543  0.5140302782543448 1.0000   
         H         H         1.0       0.6740695322804524  0.6696684936191493  0.5254600691353146 1.0000   
         H         H         1.0       0.6679819856793809  0.6634022263050361  0.5862336121904627 1.0000   
         H         H         1.0       0.7071588283772929  0.6706417335858987  0.6360626414457494 1.0000   
         H         H         1.0       0.758021151865215   0.6854032832879045  0.6522812165036973 1.0000   
         H         H         1.0       0.7320550654701324  0.6003847247700561  0.6365147098169197 1.0000   
         H         H         1.0       0.683234210458299   0.5858946757174472  0.6232088654069132 1.0000   
         C         C         1.0       0.5166556151910078  0.5004574146395765  0.05536726033942796          1.0000   
         C         C         1.0       0.526246743584296   0.527553254946867   0.045583553100429386         1.0000   
         C         C         1.0       0.521306922780331   0.5322277343579596  0.011972118021629674         1.0000   
         C         C         1.0       0.5142415518922783  0.5113577659744433  0.9877012829122084 1.0000   
         C         C         1.0       0.5046616948706356  0.484324756844618   0.9980530783114722 1.0000   
         C         C         1.0       0.5062634567199908  0.4789056958216079  0.030782895887930817         1.0000   
         H         H         1.0       0.5330328180547818  0.5455029215554957  0.06396404524176935          1.0000   
         H         H         1.0       0.5230169209192884  0.5507272165127225  0.0034756888098392835        1.0000   
         H         H         1.0       0.4958909984981175  0.4664507878490683  0.9796237089226312 1.0000   
         H         H         1.0       0.501098688701515   0.45846468958647757           0.03956500950724373          1.0000   
         C         C         1.0       0.5443762048292029  0.4958734063131056  0.9316756617291239 1.0000   
         C         C         1.0       0.522152885279429   0.4998841822277334  0.9224502165052226 1.0000   
         C         C         1.0       0.5119324925631475  0.4926329824988381  0.8892904227172661 1.0000   
         C         C         1.0       0.5226374668522686  0.4819282235573647  0.8670688776050072 1.0000   
         C         C         1.0       0.5424448945338859  0.47634767304605763           0.8774240599269635 1.0000   
         C         C         1.0       0.5544405754169776  0.48340380644348835           0.9103978086413361 1.0000   
         C         C         1.0       0.5133571058437085  0.5167955493499243  0.946807445161709  1.0000   
         C         C         1.0       0.5364283135928661  0.5490105732194044  0.9340714380461262 1.0000   
         C         C         1.0       0.5298606187763002  0.5594940311068425  0.9045729189231555 1.0000   
         C         C         1.0       0.5493051224542602  0.5871263045251293  0.8951919766524468 1.0000   
         C         C         1.0       0.5742315284408951  0.603908317381943   0.9139177184647426 1.0000   
         C         C         1.0       0.5815323301291981  0.5935951430723132  0.941205987543933  1.0000   
         C         C         1.0       0.5626992825393664  0.565505974497375   0.949859017598079  1.0000   
         C         C         1.0       0.45840482572328584           0.4772088004308072 0.9379530960908065 1.0000   
         C         C         1.0       0.43206340675697086           0.46985636897120464          0.9247046312161267 1.0000   
         C         C         1.0       0.42585899699693    0.4907550236111139  0.9187220703912626 1.0000   
         C         C         1.0       0.44670534684783936           0.5183341442026472 0.9274030433156673 1.0000   
         C         C         1.0       0.4719073719304386  0.524742200502083   0.9432818173662908 1.0000   
         C         C         1.0       0.4799471241459599  0.5059171525479859  0.9441746810151689 1.0000   
         C         C         1.0       0.39899653324254875           0.4835997309259056 0.8954504372723929 1.0000   
         C         C         1.0       0.43187889762785264           0.4640671143729937 0.8018626090303573 1.0000   
         C         C         1.0       0.40789146919332775           0.4427328201985699 0.819982941356671  1.0000   
         C         C         1.0       0.3993505683088937  0.44897280823606817           0.8505322654543163 1.0000   
         C         C         1.0       0.41050813331884295           0.47665988969579615          0.8608032328824005 1.0000   
         C         C         1.0       0.43320658567264636           0.49656484213988156          0.8416047318831933 1.0000   
         C         C         1.0       0.44368388332251285           0.49126030615101846          0.8120665466630981 1.0000   
         C         C         1.0       0.39284660824657575           0.5087899561699833 0.8908547583894809 1.0000   
         C         C         1.0       0.3853927330856948  0.518920798559199   0.9185801935398051 1.0000   
         C         C         1.0       0.38116764987050683           0.5405473670519167 0.9137788757715087 1.0000   
         C         C         1.0       0.3804871146143356  0.5492654108287496  0.8810126295152207 1.0000   
         C         C         1.0       0.38637872497213305           0.5381396577054954 0.8531353233536753 1.0000   
         C         C         1.0       0.39217895637925865           0.5178769931155375 0.8579258087764584 1.0000   
         C         C         1.0       0.34535102267986434           0.43911793795467785          0.8873168092363448 1.0000   
         C         C         1.0       0.3218056809176072  0.4138111982170169  0.897397737050396  1.0000   
         C         C         1.0       0.3204866207780605  0.40359134628943927           0.9298452703896177 1.0000   
         C         C         1.0       0.3421532268800446  0.42160595659490285           0.9537211902639853 1.0000   
         C         C         1.0       0.36457029883485703           0.4471836960684463 0.9439941019319428 1.0000   
         C         C         1.0       0.36809140117531786           0.4560365447881358 0.910239072396997  1.0000   
         H         H         1.0       0.5557437297143065  0.5035838661345914  0.957158313379355  1.0000   
         H         H         1.0       0.5004113092255362  0.50034679599458    0.87845428592595   1.0000   
         H         H         1.0       0.5140023628908542  0.47578566693175367           0.8410138807633685 1.0000   
         H         H         1.0       0.5732198270679021  0.4826780906596385  0.9201477326651946 1.0000   
         H         H         1.0       0.5105087597955206  0.547414298208399   0.8891478932948116 1.0000   
         H         H         1.0       0.5444256896268816  0.5956651584969677  0.873506135508803  1.0000   
         H         H         1.0       0.6014548374527187  0.6063318363553438  0.9560998808782794 1.0000   
         H         H         1.0       0.5694739534167267  0.5580504561258143  0.9704988467913114 1.0000   
         H         H         1.0       0.46410364964096235           0.46117205855893334          0.9362665374966217 1.0000   
         H         H         1.0       0.4134625882198857  0.44756115428994747           0.9211678135506939 1.0000   
         H         H         1.0       0.4459833203494678  0.5368341162968394  0.9205878945474494 1.0000   
         H         H         1.0       0.4876092297328727  0.5465902304302214  0.9471335807143314 1.0000   
         H         H         1.0       0.39831575008400827           0.41984254580473823          0.8108940205368911 1.0000   
         H         H         1.0       0.38633732323870557           0.43345339270644767          0.8691093473361581 1.0000   
         H         H         1.0       0.447211714618926   0.5183124084250496  0.8475136551917839 1.0000   
         H         H         1.0       0.46328241013854676           0.5093065403425303 0.8022094540167028 1.0000   
         H         H         1.0       0.38588989467784224           0.5115031385117732 0.9455740758064332 1.0000   
         H         H         1.0       0.3795919742596107  0.5508933629170405  0.9340107739265854 1.0000   
         H         H         1.0       0.3866561084276064  0.5437870377879852  0.8269712832368671 1.0000   
         H         H         1.0       0.39468439379380066           0.5078686558329603 0.8356478859300909 1.0000   
         H         H         1.0       0.3466165026048769  0.4470610021179032  0.8603397205826039 1.0000   
         H         H         1.0       0.3070183187080598  0.4002058345276197  0.8775151511267046 1.0000   
         H         H         1.0       0.34340543991731964           0.41361416257472083          0.9769902604581296 1.0000   
         H         H         1.0       0.3803160665602843  0.45845408363778145           0.9641952018370785 1.0000   
         C         C         1.0       0.5489634002499294  0.8268182948769744  0.8521712750410364 1.0000   
         C         C         1.0       0.5698965562158933  0.8351179189725765  0.8266190247255996 1.0000   
         C         C         1.0       0.5982022796699362  0.8435538422623547  0.8356527949233985 1.0000   
         C         C         1.0       0.6047044863223439  0.841940557389218   0.8690616577652525 1.0000   
         C         C         1.0       0.581640210048487   0.8261324795695281  0.891276544094639  1.0000   
         C         C         1.0       0.5536123932065407  0.8174044076795641  0.8826391812809783 1.0000   
         H         H         1.0       0.563123687927336   0.8339233482321764  0.7995171792197706 1.0000   
         H         H         1.0       0.6148929091572839  0.8544703299359288  0.8176137111604594 1.0000   
         H         H         1.0       0.585195503401366   0.8231280822458792  0.9187888574063059 1.0000   
         H         H         1.0       0.5357241748341265  0.8081665913837403  0.8996584770093395 1.0000   
         C         C         1.0       0.627876734552289   0.8822730229140577  0.9300644974629629 1.0000   
         C         C         1.0       0.6430282676558075  0.8699263165329238  0.9200780899890706 1.0000   
         C         C         1.0       0.6603601116793457  0.8679257516228771  0.9452187563728672 1.0000   
         C         C         1.0       0.6595556492739805  0.8732936784872474  0.9793684594507894 1.0000   
         C         C         1.0       0.6414232107599439  0.8828729671697578  0.9890750752420094 1.0000   
         C         C         1.0       0.6266382065989999  0.8867347597736206  0.9650646528681212 1.0000   
         C         C         1.0       0.6371472766289075  0.8568819008053328  0.8825375050981281 1.0000   
         C         C         1.0       0.6618410922092125  0.8854449196485481  0.8615272524017659 1.0000   
         C         C         1.0       0.6903242777204683  0.8924781980237783  0.8620858882549097 1.0000   
         C         C         1.0       0.7091885163350291  0.9079717146749368  0.8352724877899721 1.0000   
         C         C         1.0       0.7000280442299307  0.9193372568171239  0.8107656429825782 1.0000   
         C         C         1.0       0.6740185517276687  0.9170425597069108  0.8149600765107448 1.0000   
         C         C         1.0       0.6555806672703982  0.9014737839609468  0.8412180775509589 1.0000   
         C         C         1.0       0.6362784479056663  0.813238321748269   0.9017795767730126 1.0000   
         C         C         1.0       0.6426195102225426  0.7921637898336732  0.8974158747289868 1.0000   
         C         C         1.0       0.6549005781033764  0.7904933252611845  0.8665076757145542 1.0000   
         C         C         1.0       0.6598631385691812  0.809487697758931   0.8411958012124533 1.0000   
         C         C         1.0       0.651106471457896   0.827525199271177   0.8457038200579021 1.0000   
         C         C         1.0       0.6413923071081674  0.8314450868284116  0.876341032869458  1.0000   
         C         C         1.0       0.6650878868951476  0.7690291129923243  0.8623693858529121 1.0000   
         C         C         1.0       0.7495239383192335  0.8298226320301579  0.9072364072195789 1.0000   
         C         C         1.0       0.7267153479112552  0.8097916166861595  0.9278854360906298 1.0000   
         C         C         1.0       0.7005951585523972  0.7911343841681877  0.9140491659433219 1.0000   
         C         C         1.0       0.6965022396098305  0.7895114580622409  0.8777497610968341 1.0000   
         C         C         1.0       0.7192129590944902  0.8103786878985348  0.8573190268388252 1.0000   
         C         C         1.0       0.745447763237347   0.8301017803544539  0.8715241471238047 1.0000   
         C         C         1.0       0.6580392848878304  0.7537537081412803  0.8246747158765895 1.0000   
         C         C         1.0       0.632783461693124   0.7439271115664853  0.8047460369716292 1.0000   
         C         C         1.0       0.6300791138032575  0.7312472901248427  0.7722620161550418 1.0000   
         C         C         1.0       0.650812064515576   0.7254802833609165  0.7617681988945701 1.0000   
         C         C         1.0       0.6757779738247922  0.7361739473899687  0.7802248577076012 1.0000   
         C         C         1.0       0.679320161511642   0.7494550325292649  0.8115591085278412 1.0000   
         C         C         1.0       0.660529407802106   0.7254837842577787  0.8957563493424988 1.0000   
         C         C         1.0       0.6447306855656917  0.6991199140528894  0.9106787390823298 1.0000   
         C         C         1.0       0.6165583150901545  0.6876149989094558  0.9192709171239041 1.0000   
         C         C         1.0       0.6027038357214068  0.700965127013433   0.9087561763483817 1.0000   
         C         C         1.0       0.6183580835222761  0.7268927489682155  0.8923105542778077 1.0000   
         C         C         1.0       0.6468013865362747  0.7394823091418765  0.8830056103266409 1.0000   
         H         H         1.0       0.6161209026454562  0.8873254541394932  0.9124395223253602 1.0000   
         H         H         1.0       0.6735779593923409  0.8607655967323452  0.9363081748384899 1.0000   
         H         H         1.0       0.6724716041701898  0.8704085817946914  0.9978974231691526 1.0000   
         H         H         1.0       0.6145024073487627  0.895778402953108   0.9738221139513735 1.0000   
         H         H         1.0       0.6973371871030121  0.8824343737819663  0.8793471627778935 1.0000   
         H         H         1.0       0.7305659387159519  0.9123193762201958  0.834514657541411  1.0000   
         H         H         1.0       0.6656357859631581  0.9234103716284701  0.79394902396293   1.0000   
         H         H         1.0       0.6348570311148     0.8993177496538123  0.8419027246046807 1.0000   
         H         H         1.0       0.6228790453270822  0.8107070681144743  0.9237989123185891 1.0000   
         H         H         1.0       0.6381360858857542  0.7786637216926617  0.9193200745728636 1.0000   
         H         H         1.0       0.6675087506420107  0.8067593930078132  0.8154229388378287 1.0000   
         H         H         1.0       0.6517952658483398  0.8385858254577979  0.8224096831484344 1.0000   
         H         H         1.0       0.7316061393455515  0.8110798442070309  0.9552617164332622 1.0000   
         H         H         1.0       0.6846868088837573  0.7779441104511661  0.9328283699404122 1.0000   
         H         H         1.0       0.7144352581947216  0.8101344059195889  0.8306057951100355 1.0000   
         H         H         1.0       0.7645051353550728  0.8435605740544275  0.8570928055593852 1.0000   
         H         H         1.0       0.615655030665797   0.7463923700282528  0.8138027908265579 1.0000   
         H         H         1.0       0.6097074503685705  0.7265278649633189  0.7578116653518916 1.0000   
         H         H         1.0       0.6953197496833536  0.7373996030728924  0.7720610812801737 1.0000   
         H         H         1.0       0.6998583117649498  0.7566518894032771  0.8243828603944688 1.0000   
         H         H         1.0       0.6816008464249882  0.7319352971212909  0.8886695389462129 1.0000   
         H         H         1.0       0.6545932737176996  0.6885417289093053  0.9127769961952023 1.0000   
         H         H         1.0       0.5810335228608097  0.6930522783832973  0.9140216467404225 1.0000   
         H         H         1.0       0.6072107996554209  0.7372906488987112  0.8869543130039876 1.0000   
         C         C         1.0       0.7210456239890224  0.9208541319523968  0.7153173407334663 1.0000   
         C         C         1.0       0.7436195877787577  0.9185471050006614  0.7024468619843346 1.0000   
         C         C         1.0       0.750802766423126   0.9265993462681744  0.6679139017904702 1.0000   
         C         C         1.0       0.7343182268564803  0.9318941092971802  0.6452375733623338 1.0000   
         C         C         1.0       0.7142399243640933  0.9358359173863847  0.6610977085239605 1.0000   
         C         C         1.0       0.7068901469866712  0.9298517174584277  0.695035527365001  1.0000   
         H         H         1.0       0.7523239488063003  0.9098481088288692  0.719525746409176  1.0000   
         H         H         1.0       0.7690619090042281  0.9268646100921246  0.6549613188240984 1.0000   
         H         H         1.0       0.6974665077582894  0.9381785235276208  0.6480964786085546 1.0000   
         H         H         1.0       0.6890677022927617  0.9297577072980336  0.7066545510006286 1.0000   
         C         C         1.0       0.6892184817362778  0.9126116617619732  0.12008334157306666          1.0000   
         C         C         1.0       0.7183419553089505  0.9299380910150028  0.10789434424882627          1.0000   
         C         C         1.0       0.7214524488048888  0.9395888043613945  0.07457474994761037          1.0000   
         C         C         1.0       0.6992228705175405  0.9358577131165756  0.055518568996324236         1.0000   
         C         C         1.0       0.6715642501025089  0.919715356461959   0.0681172604325968 1.0000   
         C         C         1.0       0.6667488972184249  0.9091355544191261  0.09893912757738343          1.0000   
         C         C         1.0       0.735900992756445   0.931222438646445   0.60406948375319   1.0000   
         C         C         1.0       0.7393333956762037  0.9066319487620581  0.5892988777170649 1.0000   
         C         C         1.0       0.7648247813380726  0.9142743044960441  0.08922328917739852          1.0000   
         C         C         1.0       0.76811401628743    0.8925253337178559  0.07933491312635721          1.0000   
         C         C         1.0       0.7493130008987118  0.868975342570267   0.5561166147311757 1.0000   
         C         C         1.0       0.7346230778694899  0.8619298706080755  0.5876326756947857 1.0000   
         C         C         1.0       0.7294946083782287  0.8805730289842824  0.6033240123990382 1.0000   
         C         C         1.0       0.7566177002177736  0.9846722089760183  0.5988030003737591 1.0000   
         C         C         1.0       0.7766961121848216  0.010237361659670707         0.5831680813436403 1.0000   
         C         C         1.0       0.8033381312209953  0.01607749580365958           0.5711123599033483 1.0000   
         C         C         1.0       0.8092631704599641  0.9958028662153198  0.5779813882696102 1.0000   
         C         C         1.0       0.7901067893553231  0.9709923914779867  0.5925905818728517 1.0000   
         C         C         1.0       0.7617607233967979  0.9630566164392899  0.5988864851898096 1.0000   
         C         C         1.0       0.8232960802177353  0.04115931545777629           0.05470227162997787          1.0000   
         C         C         1.0       0.7528455022740813  0.9957777890650942  0.9765359491787988 1.0000   
         C         C         1.0       0.7537103058852623  0.016341527175045556         0.998370390483007  1.0000   
         C         C         1.0       0.7746064133971924  0.028264202477020106         0.023299223773198596         1.0000   
         C         C         1.0       0.7970401047587831  0.023452498486980167         0.026970284342638484         1.0000   
         C         C         1.0       0.7939630293305634  0.0008203281105985116        0.006931570588703417         1.0000   
         C         C         1.0       0.772119029241574   0.9875642690277698  0.9823882444926308 1.0000   
         C         C         1.0       0.8540176116928306  0.04900186277924119           0.0392991249045731 1.0000   
         C         C         1.0       0.871070102401486   0.052753650626343934         0.567041897744792  1.0000   
         C         C         1.0       0.9026267604993096  0.05654041065806324           0.045438653740472956         1.0000   
         C         C         1.0       0.9066034698246074  0.059553899612339714         0.010836265704281312         1.0000   
         C         C         1.0       0.884854699359716   0.057998479401595616         0.9895901763985799 1.0000   
         C         C         1.0       0.8585199604382876  0.0524996544979793  0.0033529244430345884        1.0000   
         C         C         1.0       0.822956180083308   0.08665605956785533           0.5369569857077738 1.0000   
         C         C         1.0       0.820217610324312   0.10834859205144255           0.5491962803527528 1.0000   
         C         C         1.0       0.8214109890198494  0.11337147453600484           0.5839138352371049 1.0000   
         C         C         1.0       0.8268303354597413  0.09768471171071769           0.6059712337766252 1.0000   
         C         C         1.0       0.8297300428648088  0.07670441653332509           0.5951155180217655 1.0000   
         C         C         1.0       0.8236369289007461  0.06831962442841304           0.559717256951183  1.0000   
         H         H         1.0       0.6766961864489236  0.8829639474276899  0.6131089907240602 1.0000   
         H         H         1.0       0.7433406330121208  0.948883107594198   0.06288838866764723          1.0000   
         H         H         1.0       0.7052471169190025  0.9439267951870992  0.031093585658230394         1.0000   
         H         H         1.0       0.6438483189325713  0.8947944224163988  0.10501681658926776          1.0000   
         H         H         1.0       0.7755266500864624  0.9302212230143878  0.07275996594060596          1.0000   
         H         H         1.0       0.7816251332699016  0.8959016812675717  0.05774577200500297          1.0000   
         H         H         1.0       0.728618150598006   0.8415097484028286  0.5956681601781031 1.0000   
         H         H         1.0       0.7161828485953678  0.8734477156502003  0.6263611136493423 1.0000   
         H         H         1.0       0.7355443952627826  0.9805757824267743  0.6041255441023082 1.0000   
         H         H         1.0       0.7705104966342313  0.024567807679406695         0.5734569584364613 1.0000   
         H         H         1.0       0.8378412446351454  0.006029751808496409         0.0862326214049618 1.0000   
         H         H         1.0       0.794729234722193   0.9547982935776697  0.5951590469836264 1.0000   
         H         H         1.0       0.7371700235544959  0.020385394901254905         0.996284675203456  1.0000   
         H         H         1.0       0.7750981196002878  0.0433419053267973  0.041301575063094065         1.0000   
         H         H         1.0       0.8086656350416007  0.994854034291085   0.011352026801599635         1.0000   
         H         H         1.0       0.7675950670954567  0.9689999866910914  0.9671078162059197 1.0000   
         H         H         1.0       0.8625021254143417  0.048848025675770866         0.5933034062947586 1.0000   
         H         H         1.0       0.9124062406534548  0.0644422413843423  0.5849508996677457 1.0000   
         H         H         1.0       0.884019331166964   0.05793217354850798           0.9617280081853741 1.0000   
         H         H         1.0       0.8422323651273675  0.05149731768786535           0.9834805791648449 1.0000   
         H         H         1.0       0.8281655599308877  0.08483740513635088           0.01472872340012743          1.0000   
         H         H         1.0       0.8167568759298575  0.11959646926398144           0.5293081089041074 1.0000   
         H         H         1.0       0.8285130337205725  0.10232664228088231           0.6333974750001953 1.0000   
         H         H         1.0       0.8317592778641908  0.06439395976004324           0.6151690346316215 1.0000   
         C         C         1.0       0.8849151116268035  0.4734053468444493  0.6745214158989707 1.0000   
         C         C         1.0       0.9022386165713551  0.484242072656761   0.6468516861976669 1.0000   
         C         C         1.0       0.9313464161967064  0.4949568508430504  0.6505941595047308 1.0000   
         C         C         1.0       0.9439477184096629  0.4977092758478229  0.6824540267763358 1.0000   
         C         C         1.0       0.9247672026134816  0.48392390413222297           0.7086997147318217 1.0000   
         C         C         1.0       0.8964379861051398  0.4735881042601192  0.7066474821533401 1.0000   
         H         H         1.0       0.8953972955833988  0.48671817160951664           0.6213388033067937 1.0000   
         H         H         1.0       0.9460169192025484  0.505318726781466   0.6290329973957056 1.0000   
         H         H         1.0       0.9314394876545649  0.4821874225589048  0.7333230333902105 1.0000   
         H         H         1.0       0.8840182846571437  0.46847969526123684           0.7290371437451829 1.0000   
         C         C         1.0       0.9674995637234225  0.5447036060649239  0.7404342686823083 1.0000   
         C         C         1.0       0.9832838630027968  0.5335479337303715  0.7288735545835351 1.0000   
         C         C         1.0       0.004083216418523161          0.5358320591598732 0.7524369007589558 1.0000   
         C         C         1.0       0.0028276076798412486         0.5399144970940665 0.7872536388803907 1.0000   
         C         C         1.0       0.9802674076793784  0.5419651111711719  0.7985684685347706 1.0000   
         C         C         1.0       0.9640096020170127  0.546371174692949   0.7747643839155001 1.0000   
         C         C         1.0       0.9784376445868189  0.518334838725737   0.6922828272487137 1.0000   
         C         C         1.0       0.9962656514836822  0.5446716331525528  0.6682322258806671 1.0000   
         C         C         1.0       0.02579004457679357           0.5560137317029606 0.6643619541807525 1.0000   
         C         C         1.0       0.04278369375203582           0.5802240776659335 0.6487508799805405 1.0000   
         C         C         1.0       0.03039950951994859           0.5914982311556262 0.6285878697819007 1.0000   
         C         C         1.0       0.0013217866219861207         0.5810429375951093 0.6324436394045599 1.0000   
         C         C         1.0       0.985025206170579   0.5591914526947973  0.6521571009700449 1.0000   
         C         C         1.0       0.9872655541665144  0.479682071254065   0.7155083426193033 1.0000   
         C         C         1.0       0.9941975594740449  0.4603673637669469  0.7110684332970846 1.0000   
         C         C         1.0       0.9986062582828634  0.45316985610616917           0.6782234446413196 1.0000   
         C         C         1.0       0.9975618897096299  0.4674187956333062  0.6501551712137069 1.0000   
         C         C         1.0       0.9918510536913556  0.48754065196409385           0.6551423150285449 1.0000   
         C         C         1.0       0.9856799708843004  0.49451211780731763           0.6874849866428675 1.0000   
         C         C         1.0       0.007820414262234676          0.4313497563511244 0.6735812685901867 1.0000   
         C         C         1.0       0.10069876806660462           0.49196171267105604          0.6773885213956486 1.0000   
         C         C         1.0       0.08560870483944874           0.4800683712191023 0.7066477972987917 1.0000   
         C         C         1.0       0.05667020685287616           0.4611949261467817 0.7052582040879831 1.0000   
         C         C         1.0       0.042262607513122274          0.45303229725666583          0.6746537197917065 1.0000   
         C         C         1.0       0.05789704101515625           0.4652984589477618 0.6454968409544989 1.0000   
         C         C         1.0       0.08569407604187738           0.4830617790160191 0.6463101320155699 1.0000   
         C         C         1.0       0.9934090856386877  0.4125745682591075  0.6380419657263966 1.0000   
         C         C         1.0       0.9655476145548676  0.40466107242828103           0.6284237416419669 1.0000   
         C         C         1.0       0.9523301041632547  0.3904363999603753  0.5992345456405651 1.0000   
         C         C         1.0       0.9663896543138232  0.38089873542553193           0.5805367794338862 1.0000   
         C         C         1.0       0.9927712665170384  0.3860140702070393  0.5890336889997326 1.0000   
         C         C         1.0       0.007435977955187134          0.40315991412327984          0.617481557994248  1.0000   
         C         C         1.0       0.008995302035731179          0.39293630484807185          0.7113535489624734 1.0000   
         C         C         1.0       0.996137420290348   0.3683233273796423  0.729837280858095  1.0000   
         C         C         1.0       0.9675762599097126  0.35548983665758216           0.7393246745541463 1.0000   
         C         C         1.0       0.9516503377840692  0.3666997751671172  0.7289546649183224 1.0000   
         C         C         1.0       0.9637743094489299  0.3910930486737999  0.7110110879216386 1.0000   
         C         C         1.0       0.9929906503086344  0.40399830970407863           0.7015964651438428 1.0000   
         H         H         1.0       0.9550470877186319  0.5487259802634     0.7222693224158128 1.0000   
         H         H         1.0       0.019899351387694164          0.5321338762728439 0.7435681129293066 1.0000   
         H         H         1.0       0.018375804717183333          0.5409400785607336 0.8072512939269683 1.0000   
         H         H         1.0       0.9476818170914515  0.5490630052024261  0.7852374145654247 1.0000   
         H         H         1.0       0.034570154762059296          0.5452788196943006 0.6765384528660511 1.0000   
         H         H         1.0       0.0642853932806203  0.5869968811044491  0.644973085341984  1.0000   
         H         H         1.0       0.9924077972328703  0.5922598342810865  0.619249793907004  1.0000   
         H         H         1.0       0.9624552678785385  0.5518091417546851  0.6558039765890787 1.0000   
         H         H         1.0       0.9808231666908263  0.48064666187791755           0.7418996248439108 1.0000   
         H         H         1.0       0.9935454031774429  0.4480345768477875  0.7336543110867086 1.0000   
         H         H         1.0       0.0012687056342988168         0.46599054128823186          0.6233347896207581 1.0000   
         H         H         1.0       0.9952130252290531  0.49970527936646414           0.6330931060313941 1.0000   
         H         H         1.0       0.09635260869270772           0.48477483229490004          0.7312565781110718 1.0000   
         H         H         1.0       0.04369828758089067           0.45407460946514194          0.7285221894613779 1.0000   
         H         H         1.0       0.048199409786304104          0.4607005360690935 0.6203212670949952 1.0000   
         H         H         1.0       0.0979377103549703  0.49368108610633754           0.6242126338232956 1.0000   
         H         H         1.0       0.9537668173849712  0.40982089504858915           0.6468210281743729 1.0000   
         H         H         1.0       0.9310633436611929  0.3869085469130403  0.5932946026501775 1.0000   
         H         H         1.0       0.0010677084803230041         0.37415885748055827          0.575223468238166  1.0000   
         H         H         1.0       0.02754523133512987           0.4047455617502706 0.6250519829309279 1.0000   
         H         H         1.0       0.030779275247403648          0.4037490901764849 0.7035146088382507 1.0000   
         H         H         1.0       0.008034066600557166          0.35975760991991024          0.7323595737237089 1.0000   
         H         H         1.0       0.9286543263429535  0.3550032978612066  0.7359577101899175 1.0000   
         H         H         1.0       0.9512586937714372  0.3997703727497743  0.7018999262169903 1.0000   
         C         C         1.0       0.09725586277762291           0.6279461179788643 0.040379802703010004         1.0000   
         C         C         1.0       0.119992972553974   0.6300972834890457  0.024033704996249794         1.0000   
         C         C         1.0       0.1182509008077301  0.623722519846562   0.9890361789666681 1.0000   
         C         C         1.0       0.0934152456980843  0.6168530421318338  0.9696923935660625 1.0000   
         C         C         1.0       0.07130284520489168           0.6183405169972179 0.9861287537469682 1.0000   
         C         C         1.0       0.07356176021511189           0.6238480421577989 0.021662468790154543         1.0000   
         H         H         1.0       0.14008467189967902           0.634479837876337  0.0376876665874033 1.0000   
         H         H         1.0       0.13698376444426996           0.6265010038966305 0.9767574977270459 1.0000   
         H         H         1.0       0.053839722350169504          0.6179705522463105 0.9721044522866664 1.0000   
         H         H         1.0       0.05513801095754256           0.6238849299568225 0.033953842065824524         1.0000   
         C         C         1.0       0.038252195361976604          0.5766370827130283 0.9243742561166608 1.0000   
         C         C         1.0       0.06354672582891392           0.5969338947834238 0.9079860261583529 1.0000   
         C         C         1.0       0.06026402540091807           0.6036065909454402 0.8747259191167454 1.0000   
         C         C         1.0       0.032273719848684324          0.5907127152193334 0.859572187682939  1.0000   
         C         C         1.0       0.007907834765769062          0.57258224076074   0.8771645337739269 1.0000   
         C         C         1.0       0.010534332777534239          0.5638098660267141 0.909653616463888  1.0000   
         C         C         1.0       0.09373658605483322           0.6111015832632345 0.9283552474452087 1.0000   
         C         C         1.0       0.10294567283594486           0.5897636687913707 0.9195152208569849 1.0000   
         C         C         1.0       0.11526249151468866           0.5904310280003745 0.8884987818356345 1.0000   
         C         C         1.0       0.12253775015801867           0.5714896427081757 0.8773591657530394 1.0000   
         C         C         1.0       0.11495391444280946           0.548765620113033  0.8986948908245315 1.0000   
         C         C         1.0       0.10267979321384342           0.5469619943574117 0.9294715568415134 1.0000   
         C         C         1.0       0.0962694616732203  0.566197811076253   0.9391096309022966 1.0000   
         C         C         1.0       0.1055637897812154  0.6614745387979987  0.9128956073268248 1.0000   
         C         C         1.0       0.12039734473457826           0.6856799136418747 0.896117295189838  1.0000   
         C         C         1.0       0.145736128794234   0.6932264151797527  0.8784841092880262 1.0000   
         C         C         1.0       0.15728148484696372           0.6779366643191601 0.883932069969063  1.0000   
         C         C         1.0       0.14515139591836632           0.6555256446752252 0.9062237340008651 1.0000   
         C         C         1.0       0.11644268871350565           0.643908561141675  0.9164701304544229 1.0000   
         C         C         1.0       0.15911758675213142           0.7204507118444291 0.8529286086155357 1.0000   
         C         C         1.0       0.09269180563820907           0.669594100399214  0.7723942434240811 1.0000   
         C         C         1.0       0.08975244513498365           0.6873602965831783 0.7923461642020388 1.0000   
         C         C         1.0       0.10952933046474547           0.7022261776725855 0.8185033810321649 1.0000   
         C         C         1.0       0.13527872986294426           0.7022543877303461 0.8229523563073552 1.0000   
         C         C         1.0       0.13814348763207424           0.6842231797805352 0.8002235019878748 1.0000   
         C         C         1.0       0.11643107422552261           0.6675188904059356 0.7770881281769844 1.0000   
         C         C         1.0       0.19092487610583417           0.733353772838827  0.8383532484476748 1.0000   
         C         C         1.0       0.21235107253842386           0.7356167079108604 0.8584568582390776 1.0000   
         C         C         1.0       0.24094192887718152           0.747103396191873  0.847706868103291  1.0000   
         C         C         1.0       0.24775962937835247           0.757925728803643  0.8136180484809247 1.0000   
         C         C         1.0       0.22590619699330006           0.7562609643688251 0.7940885043955186 1.0000   
         C         C         1.0       0.1983044650650062  0.742663299236275   0.8043971207217129 1.0000   
         C         C         1.0       0.15581738095624736           0.7642923056494443 0.848419024760898  1.0000   
         C         C         1.0       0.15289123351401118           0.7853163586754474 0.8627513124197781 1.0000   
         C         C         1.0       0.1509447989208738  0.7876331911930587  0.8976263476735689 1.0000   
         C         C         1.0       0.15558534729158618           0.7708801838700544 0.9181901738225278 1.0000   
         C         C         1.0       0.15906818260288125           0.7513160426743852 0.9026105697169003 1.0000   
         C         C         1.0       0.15963191546265795           0.7468834150110154 0.8682213761536358 1.0000   
         H         H         1.0       0.039624184751051374          0.569401344416457  0.9488092693247385 1.0000   
         H         H         1.0       0.07765581522089857           0.6205934420158139 0.8607343132200852 1.0000   
         H         H         1.0       0.032372050781090615          0.5993259182972713 0.8327642446352217 1.0000   
         H         H         1.0       0.9916243362690426  0.5473741815047084  0.9264150935552481 1.0000   
         H         H         1.0       0.11991326662963477           0.6047530686287828 0.8674130537027543 1.0000   
         H         H         1.0       0.13325581285919003           0.5754537052591372 0.8536079266586931 1.0000   
         H         H         1.0       0.09661612094718662           0.5296725151467958 0.9449311793291173 1.0000   
         H         H         1.0       0.08537670047878976           0.5622698599360123 0.9635860096548509 1.0000   
         H         H         1.0       0.08603936396947899           0.6560114847339305 0.9257179044867134 1.0000   
         H         H         1.0       0.11073763570959674           0.6982129635163542 0.894332370176865  1.0000   
         H         H         1.0       0.17586003350319995           0.6809849612285821 0.8716228220550498 1.0000   
         H         H         1.0       0.15596275067147805           0.6435536470288385 0.9073313788288092 1.0000   
         H         H         1.0       0.07035874558516896           0.6879539930445648 0.7915392816773794 1.0000   
         H         H         1.0       0.10359953836146227           0.7120269522183245 0.838292047897394  1.0000   
         H         H         1.0       0.15630409074345503           0.681784119085649  0.8012416716976795 1.0000   
         H         H         1.0       0.1189265050590594  0.6524204682457752  0.7623112900125484 1.0000   
         H         H         1.0       0.2109551746328464  0.7324179383191518  0.8861209541677184 1.0000   
         H         H         1.0       0.25684180762854975           0.748055934779354  0.8654827718018122 1.0000   
         H         H         1.0       0.23122738223489525           0.7639913285676656 0.7671508560966636 1.0000   
         H         H         1.0       0.1838015887193859  0.7412372704994037  0.7860613785547778 1.0000   
         H         H         1.0       0.15247959357727325           0.7591736337833426 0.8200175251680749 1.0000   
         H         H         1.0       0.15112958194370915           0.7994749754822837 0.8446025790896703 1.0000   
         H         H         1.0       0.15537455294367972           0.7700555940579943 0.9451008789568296 1.0000   
         H         H         1.0       0.16236634791620227           0.7376898112444792 0.9214073039665561 1.0000   
         C         C         1.0       0.9702747628214065  0.8699740196828356  0.9907842066027538 1.0000   
         C         C         1.0       0.9570961015730469  0.8474714631210499  0.9692978306480854 1.0000   
         C         C         1.0       0.9396937589370088  0.8205652058048073  0.9827288676617355 1.0000   
         C         C         1.0       0.9370948904272042  0.8159183213304998  0.017811603219142658         1.0000   
         C         C         1.0       0.9464341043329865  0.840177315569088   0.03827310605628531          1.0000   
         C         C         1.0       0.9632058359603514  0.8662958994533009  0.0243231170310656 1.0000   
         H         H         1.0       0.9589058891258229  0.8458384407112483  0.9409628068931185 1.0000   
         H         H         1.0       0.9284976518749473  0.8022723042995893  0.9657156063297033 1.0000   
         H         H         1.0       0.913017465055593   0.8192887081670668  0.5378860753580386 1.0000   
         H         H         1.0       0.9463086740774637  0.8644483196303153  0.5217587699010924 1.0000   
         C         C         1.0       0.9666687315135897  0.80271038016137    0.0719738891032371 1.0000   
         C         C         1.0       0.9361808424966829  0.7885308758772986  0.07103663173871166          1.0000   
         C         C         1.0       0.9206341274050405  0.7753387633661699  0.10082492922257447          1.0000   
         C         C         1.0       0.9019005406422637  0.7540112022270479  0.6020492364062353 1.0000   
         C         C         1.0       0.9281066733356557  0.7752400469070992  0.6127104505395012 1.0000   
         C         C         1.0       0.9471801173488478  0.7934164633410167  0.5882857340476999 1.0000   
         C         C         1.0       0.9205005159587692  0.785911914821422   0.03417074348807514          1.0000   
         C         C         1.0       0.9242463890381338  0.7629095781698152  0.015325323341101926         1.0000   
         C         C         1.0       0.90276619403385    0.7354790207407073  0.019661185327339625         1.0000   
         C         C         1.0       0.8987929464120031  0.7150260237917925  0.9966731657792826 1.0000   
         C         C         1.0       0.9191128899289688  0.7224260804162808  0.9698149399146248 1.0000   
         C         C         1.0       0.9437588259652733  0.7499756935634108  0.9695061805484381 1.0000   
         C         C         1.0       0.9467194113619597  0.7692052594486876  0.9928476637129904 1.0000   
         C         C         1.0       0.8790258094225375  0.7907133159785986  0.05670747915020269          1.0000   
         C         C         1.0       0.851198894131371   0.7864677813039016  0.055754498980204126         1.0000   
         C         C         1.0       0.8341028790677497  0.7746585679235839  0.02584040554776834          1.0000   
         C         C         1.0       0.8458576513955013  0.766238540986704   0.999047236254358  1.0000   
         C         C         1.0       0.8722985407224902  0.7694893268624368  0.001151048593446502         1.0000   
         C         C         1.0       0.889031971168525   0.7813938725338838  0.031448612556736144         1.0000   
         C         C         1.0       0.8021543655640535  0.7704960840611117  0.021435858540903796         1.0000   
         C         C         1.0       0.7609371049228246  0.6800765205772256  0.019599386111653905         1.0000   
         C         C         1.0       0.7349806809372305  0.6864894726925305  0.499144186251029  1.0000   
         C         C         1.0       0.7561157735147085  0.7146216076377018  0.49902661668422593          1.0000   
         C         C         1.0       0.7832274800302762  0.7369784446367491  0.020576117891464962         1.0000   
         C         C         1.0       0.7752193380462353  0.7219014560918398  0.9905912185350628 1.0000   
         C         C         1.0       0.7663903268030703  0.6940970219365286  0.988051579648535  1.0000   
         C         C         1.0       0.8028717627208612  0.7867608693813333  0.987323809529765  1.0000   
         C         C         1.0       0.8260407847850748  0.8134383136619063  0.9826788528410143 1.0000   
         C         C         1.0       0.8256006421444385  0.8300683314920865  0.9570175801303717 1.0000   
         C         C         1.0       0.8014986124442645  0.8209879754365458  0.9365088688313661 1.0000   
         C         C         1.0       0.7771892727263371  0.7937642484617898  0.9412432862272534 1.0000   
         C         C         1.0       0.7784028686040377  0.7776230700572437  0.9660462066784765 1.0000   
         C         C         1.0       0.7625028879252433  0.7702487762277771  0.05626627836198028          1.0000   
         C         C         1.0       0.7481143066176432  0.786889607625259   0.5217443625617593 1.0000   
         C         C         1.0       0.7709248938810084  0.8133335996469134  0.5371858860498747 1.0000   
         C         C         1.0       0.8019645797448554  0.8239787601504632  0.08194029080463028          1.0000   
         C         C         1.0       0.810656486825836   0.8091318786197568  0.06475294969464462          1.0000   
         C         C         1.0       0.7915832427575406  0.7836851294927348  0.04877157065798876          1.0000   
         H         H         1.0       0.9799862662044689  0.8147668988028075  0.05071992436160744          1.0000   
         H         H         1.0       0.8971803710899177  0.7636812335069525  0.0989653068263896 1.0000   
         H         H         1.0       0.8853648751117595  0.7398970522652539  0.6216258264635856 1.0000   
         H         H         1.0       0.9659948950255909  0.813413712351298   0.5998457105426309 1.0000   
         H         H         1.0       0.8890151322318096  0.7318737102325806  0.04156041148222234          1.0000   
         H         H         1.0       0.8811678281603905  0.6934471762529861  0.9999619592130676 1.0000   
         H         H         1.0       0.9585664662827903  0.756297903617576   0.9478305101848529 1.0000   
         H         H         1.0       0.9645803213493493  0.7923770046683403  0.9925169726423839 1.0000   
         H         H         1.0       0.8938568160516541  0.8012456695706613  0.07877700587923608          1.0000   
         H         H         1.0       0.814921503246819   0.7632311324124336  0.540570902964755  1.0000   
         H         H         1.0       0.8321659455630401  0.7578578247164891  0.9761444493409873 1.0000   
         H         H         1.0       0.8806565200822041  0.7641595766430039  0.9795288327669868 1.0000   
         H         H         1.0       0.7287939991941126  0.6749752726493617  0.5232147710081283 1.0000   
         H         H         1.0       0.7647643974122728  0.7265311035409244  0.5223375528692029 1.0000   
         H         H         1.0       0.7783921626720085  0.7322174630576078  0.9651253736081642 1.0000   
         H         H         1.0       0.7675658327570732  0.684538788297911   0.9629660748216261 1.0000   
         H         H         1.0       0.8468064881457842  0.8225604260082148  0.9950202207954467 1.0000   
         H         H         1.0       0.8442248263135097  0.8512938780862734  0.9569207138338047 1.0000   
         H         H         1.0       0.7578666672859752  0.7848772475473761  0.9251753697253491 1.0000   
         H         H         1.0       0.757219915049752   0.760300136994289   0.9751936460230473 1.0000   
         H         H         1.0       0.7462006419158486  0.7510136250406217  0.04712377353712083          1.0000   
         H         H         1.0       0.7247988085038086  0.778571248794268   0.5235762124376239 1.0000   
         H         H         1.0       0.8177015261234256  0.8441728376033365  0.09386399997357175          1.0000   
         H         H         1.0       0.8318757302706608  0.8214164148279434  0.055550481395767015         1.0000   
         C         C         1.0       0.8974130303787063  0.7016317414335737  0.8731344290231962 1.0000   
         C         C         1.0       0.8724655258463736  0.6778467951229185  0.8600673405661098 1.0000   
         C         C         1.0       0.8703857527495522  0.6714991239913529  0.8250151941874273 1.0000   
         C         C         1.0       0.8927703245255539  0.6895265568246848  0.8026656945042132 1.0000   
         C         C         1.0       0.9194812490133756  0.7108705462100422  0.8177549688460567 1.0000   
         C         C         1.0       0.9213960861797776  0.7172151020228407  0.8525885056893319 1.0000   
         H         H         1.0       0.854280376109546   0.6650682861992869  0.8755834504056703 1.0000   
         H         H         1.0       0.8515446035009245  0.6530591819879219  0.8129162907749925 1.0000   
         H         H         1.0       0.9393028831162289  0.7250709407586029  0.8027612316985735 1.0000   
         H         H         1.0       0.9396272391698175  0.7335489045581396  0.865774644198601  1.0000   
         C         C         1.0       0.9139393173223851  0.73686110827653    0.7461964802845976 1.0000   
         C         C         1.0       0.912139223259553   0.7114697152093878  0.739494625369229  1.0000   
         C         C         1.0       0.9254323386548076  0.7096605202908267  0.7089898128521924 1.0000   
         C         C         1.0       0.9404495476483875  0.7318613615436402  0.6880174711345223 1.0000   
         C         C         1.0       0.9425552793070021  0.7569048701634578  0.6950621404171726 1.0000   
         C         C         1.0       0.9309209895669305  0.7594900888248474  0.7252786588467948 1.0000   
         C         C         1.0       0.8937988047233261  0.6851589322931261  0.7629431578559374 1.0000   
         C         C         1.0       0.8619972176411147  0.6720353522532505  0.7442370555553329 1.0000   
         C         C         1.0       0.8543044426522816  0.6560625384844592  0.7130737578387014 1.0000   
         C         C         1.0       0.8282281479047642  0.6469953751957371  0.6970077333708639 1.0000   
         C         C         1.0       0.8085418405382285  0.6531138547453863  0.7108089366441396 1.0000   
         C         C         1.0       0.8169654250133619  0.6710495987883897  0.7370811409772444 1.0000   
         C         C         1.0       0.8422155894109888  0.6794451352377336  0.7544667793450925 1.0000   
         C         C         1.0       0.9341377583791903  0.6727610866249529  0.7615842358670678 1.0000   
         C         C         1.0       0.9457300927209286  0.6580243428501423  0.7510233906019393 1.0000   
         C         C         1.0       0.9265740543999963  0.631763313746764   0.7368645182513226 1.0000   
         C         C         1.0       0.8969629448624099  0.6186916231639246  0.7430285619043735 1.0000   
         C         C         1.0       0.8864691954801283  0.6338531895316405  0.756502322742383  1.0000   
         C         C         1.0       0.9053044423923704  0.6631327101976878  0.7623455567878795 1.0000   
         C         C         1.0       0.9373869608168532  0.6164122981759308  0.7118599256286791 1.0000   
         C         C         1.0       0.9364816919158779  0.6626965574900395  0.6211821246794911 1.0000   
         C         C         1.0       0.96173796554216    0.6702296050883039  0.6378409493877554 1.0000   
         C         C         1.0       0.9609458913436     0.6562780009017553  0.6662148945477313 1.0000   
         C         C         1.0       0.9367915936422957  0.6319324210425403  0.6771264936999415 1.0000   
         C         C         1.0       0.9115659795545014  0.6221356581812412  0.6576995716121828 1.0000   
         C         C         1.0       0.910280824528034   0.6370313450698216  0.6289698115970347 1.0000   
         C         C         1.0       0.9167058759647094  0.5825866668719519  0.7073093290101984 1.0000   
         C         C         1.0       0.9037355512390864  0.5656655225759208  0.7357041922913358 1.0000   
         C         C         1.0       0.8828518539541564  0.5375921701314526  0.7318628689043131 1.0000   
         C         C         1.0       0.8782181391303896  0.5235277521261597  0.6996735104061774 1.0000   
         C         C         1.0       0.8922932561454335  0.5393214486392368  0.6724001530892613 1.0000   
         C         C         1.0       0.9117540256707709  0.5684512588588516  0.6756049102997702 1.0000   
         C         C         1.0       0.984991430618638   0.6186123795765363  0.6998628204368182 1.0000   
         C         C         1.0       0.009144030425879635          0.6197417009872465 0.709843389935682  1.0000   
         C         C         1.0       0.014034138011300712          0.6183724503753935 0.7432397282149009 1.0000   
         C         C         1.0       0.9961043209700682  0.6183694314197262  0.7682302495389974 1.0000   
         C         C         1.0       0.971548919641862   0.6179034911133618  0.7582929664404267 1.0000   
         C         C         1.0       0.9666410971151993  0.6203911830763674  0.7238219869223769 1.0000   
         H         H         1.0       0.9066735599711852  0.7422777143628306  0.7691880916841334 1.0000   
         H         H         1.0       0.9222083275450551  0.6908835884203879  0.7006822306155004 1.0000   
         H         H         1.0       0.9492784471019011  0.7279582182470079  0.6657194346477358 1.0000   
         H         H         1.0       0.9323349692821361  0.7785810051609574  0.7325304643128653 1.0000   
         H         H         1.0       0.8695365755807416  0.6502667274898944  0.7021850922616648 1.0000   
         H         H         1.0       0.8211894821536352  0.6326880164725324  0.6758741121179319 1.0000   
         H         H         1.0       0.8028004323408149  0.678061600366093   0.7453127160542774 1.0000   
         H         H         1.0       0.8463088883643951  0.6910666580538427  0.7796010257266832 1.0000   
         H         H         1.0       0.9478638097243179  0.6945188898975987  0.7635614081870375 1.0000   
         H         H         1.0       0.9673055305241385  0.6670044990234782  0.7479018875779836 1.0000   
         H         H         1.0       0.8812161157766022  0.5976458828155059  0.7342536513569266 1.0000   
         H         H         1.0       0.8620234551863991  0.6224232517721637  0.7534959811432033 1.0000   
         H         H         1.0       0.9847127673807352  0.688106746551438   0.6299383416193546 1.0000   
         H         H         1.0       0.9820973075083019  0.6651982866766865  0.680861485717938  1.0000   
         H         H         1.0       0.8917394575686088  0.6033637333509387  0.6654023165933751 1.0000   
         H         H         1.0       0.8897110960575527  0.6297580445184479  0.6148370333721036 1.0000   
         H         H         1.0       0.9083389608043334  0.5751860055661592  0.7612431768370149 1.0000   
         H         H         1.0       0.8694465559574404  0.5253880063521114  0.7540437490345397 1.0000   
         H         H         1.0       0.8907260267804347  0.5309226027334246  0.6452902552821419 1.0000   
         H         H         1.0       0.9225993734634752  0.579323641154471   0.6508699254386342 1.0000   
         H         H         1.0       0.981236891923638   0.6160558346065026  0.6714005320409381 1.0000   
         H         H         1.0       0.02187432645555698           0.616243079631661  0.6906848706260899 1.0000   
         H         H         1.0       0.0021975381941674588         0.6219736225813814 0.7959226188422681 1.0000   
         H         H         1.0       0.9566425326774993  0.6165420851806326  0.77890484156056   1.0000   
         C         C         1.0       0.8378261569498476  0.1852087802921039  0.8950952971154419 1.0000   
         C         C         1.0       0.8460374252685685  0.20968101736936504           0.8778768348438057 1.0000   
         C         C         1.0       0.8536025498630001  0.21279982465517855           0.8435052959912392 1.0000   
         C         C         1.0       0.8552483710639126  0.19206735981014733           0.8257263331633858 1.0000   
         C         C         1.0       0.848475865991547   0.16791219112227596           0.8441931009058944 1.0000   
         C         C         1.0       0.8408759918323643  0.16527838361203326           0.8775406297916034 1.0000   
         H         H         1.0       0.8475554872207964  0.227700363865095   0.8925388221230078 1.0000   
         H         H         1.0       0.8612368944176767  0.2323487468810642  0.8298013904541064 1.0000   
         H         H         1.0       0.8522326756767519  0.15351459142338045           0.8317322266790679 1.0000   
         H         H         1.0       0.8350515640955725  0.14671170763062266           0.8915606616909023 1.0000   
         C         C         1.0       0.8893136830200303  0.17283069139951232           0.7797754553027345 1.0000   
         C         C         1.0       0.8683231280384148  0.17691022104609735           0.7655520550703269 1.0000   
         C         C         1.0       0.8591145268424326  0.16769093558217624           0.7319934114379353 1.0000   
         C         C         1.0       0.8636569288067382  0.14916502361175635           0.7154717355893568 1.0000   
         C         C         1.0       0.8832747102021898  0.14460428785815274           0.7305336884382003 1.0000   
         C         C         1.0       0.8960357592213681  0.15584364947226645           0.7626096323218439 1.0000   
         C         C         1.0       0.8586717124642933  0.1960955841724468  0.7850897511616632 1.0000   
         C         C         1.0       0.8862299777789642  0.225486563131341   0.7747100017424065 1.0000   
         C         C         1.0       0.8850022524438688  0.23708408422658117           0.7434367779139001 1.0000   
         C         C         1.0       0.9069340314996921  0.26286952500615446           0.7336079828391605 1.0000   
         C         C         1.0       0.930868516209333   0.2766091129851699  0.7543703046150375 1.0000   
         C         C         1.0       0.933025417267295   0.2652275911894177  0.7844217572529317 1.0000   
         C         C         1.0       0.9106578750432923  0.23956083755047508           0.7940295395896391 1.0000   
         C         C         1.0       0.8041061976941402  0.16237072767741345           0.7723363735546562 1.0000   
         C         C         1.0       0.7804767684574392  0.15524981994446066           0.7537181731043056 1.0000   
         C         C         1.0       0.7762458811022628  0.17585735003257963           0.7415560240271846 1.0000   
         C         C         1.0       0.7981650876203824  0.20416993813014833           0.7462382502998021 1.0000   
         C         C         1.0       0.8235473464891735  0.21121388873705177           0.7627435696830475 1.0000   
         C         C         1.0       0.8280916302969896  0.19066597019989012           0.7744260643197152 1.0000   
         C         C         1.0       0.7486535970783518  0.16537629843630172           0.7158341490292596 1.0000   
         C         C         1.0       0.7752461829171357  0.1353319238256172  0.6266219994499788 1.0000   
         C         C         1.0       0.7517940488912354  0.11558235310751878           0.6474405295426728 1.0000   
         C         C         1.0       0.74618411190584    0.1248380594021624  0.676018632559103  1.0000   
         C         C         1.0       0.7576664263859956  0.15349410559952303           0.6830220195121091 1.0000   
         C         C         1.0       0.7807818292384526  0.1733071754128444  0.6625253750614507 1.0000   
         C         C         1.0       0.7889207378892303  0.16398142637548357           0.6343327086869676 1.0000   
         C         C         1.0       0.742304800818852   0.18847693492510117           0.7058188885232588 1.0000   
         C         C         1.0       0.7431965238421817  0.20651531001654877           0.7321041693881629 1.0000   
         C         C         1.0       0.7376923250863918  0.22710450732310597           0.7248083884273495 1.0000   
         C         C         1.0       0.7348110504918354  0.23252811921642272           0.6914086520081849 1.0000   
         C         C         1.0       0.7347444949918652  0.2154819781264191  0.6664995018924542 1.0000   
         C         C         1.0       0.7380681340339105  0.19413480187335672           0.6736578212047795 1.0000   
         C         C         1.0       0.6938326772229992  0.12497423041055371           0.7158700111844929 1.0000   
         C         C         1.0       0.669817813309242   0.10288936063349444           0.7319911608948126 1.0000   
         C         C         1.0       0.6702440470275672  0.09699527044944585           0.7659637963212566 1.0000   
         C         C         1.0       0.6932887076066652  0.11613778599706391           0.786021077014514  1.0000   
         C         C         1.0       0.7177172370250529  0.1389968698667364  0.770556407044498  1.0000   
         C         C         1.0       0.7188977846510226  0.14263357381171465           0.7345187408263972 1.0000   
         H         H         1.0       0.89720740768252    0.17995356491445053           0.8051299137884976 1.0000   
         H         H         1.0       0.844182144406842   0.17149755374316714           0.7198609243317745 1.0000   
         H         H         1.0       0.8546052816125171  0.14274698884684484           0.6893439457195024 1.0000   
         H         H         1.0       0.9104265164439315  0.15172707861919135           0.7761958901790198 1.0000   
         H         H         1.0       0.8669360745631397  0.22603133517405619           0.7251964319509813 1.0000   
         H         H         1.0       0.9068587452720918  0.2699682885915051  0.7075151594472425 1.0000   
         H         H         1.0       0.9530673715094843  0.27461923887644746           0.797166374998992  1.0000   
         H         H         1.0       0.9135089194164688  0.22789859858278796           0.8146447304932746 1.0000   
         H         H         1.0       0.8044113890407134  0.14495516102334624           0.7839295383545563 1.0000   
         H         H         1.0       0.7622561141370094  0.1316004345116203  0.7527826842285148 1.0000   
         H         H         1.0       0.7974042739858842  0.22191661648234617           0.735930119884838  1.0000   
         H         H         1.0       0.8397492073102456  0.23215890253686308           0.7677839082239246 1.0000   
         H         H         1.0       0.7406108039091601  0.09346378548358579           0.6409721856023081 1.0000   
         H         H         1.0       0.7279310494064583  0.10677239385865486           0.6900663981924889 1.0000   
         H         H         1.0       0.7901574048357495  0.19563831821373    0.6676997786330837 1.0000   
         H         H         1.0       0.8043130936554115  0.18081020092145986           0.6189926260572126 1.0000   
         H         H         1.0       0.750113256247772   0.20467091058248477           0.7582076028329964 1.0000   
         H         H         1.0       0.7389161756615141  0.24147124009772208           0.7461859709094091 1.0000   
         H         H         1.0       0.7328572156858562  0.21823222606415424           0.6400427325798577 1.0000   
         H         H         1.0       0.7375459049747651  0.18048179165850034           0.6550593001896755 1.0000   
         H         H         1.0       0.6920256637253863  0.12465695908509655           0.6877804360265681 1.0000   
         H         H         1.0       0.6498903163563193  0.09252023997485347           0.7164753118709778 1.0000   
         H         H         1.0       0.6960604847430301  0.11348986652867346           0.8132283972571535 1.0000   
         H         H         1.0       0.7365776290025817  0.15424621975676323           0.7864062898366742 1.0000   
         C         C         1.0       0.9563922694249494  0.11380637392269098           0.9731619981661839 1.0000   
         C         C         1.0       0.9419216745062201  0.12241334314033547           0.9516343081565016 1.0000   
         C         C         1.0       0.9351574796755857  0.14004466736010218           0.9633366160736447 1.0000   
         C         C         1.0       0.9420660736115921  0.1518661210477541  0.9957246927434555 1.0000   
         C         C         1.0       0.9600921742575309  0.1462621430870272  0.01566854448766941          1.0000   
         C         C         1.0       0.966304482844367   0.12667655641122116           0.004919787980340873         1.0000   
         H         H         1.0       0.9378627798914386  0.11472981402194901           0.9244505652955728 1.0000   
         H         H         1.0       0.923052509558003   0.14617057300177386           0.9466520023887581 1.0000   
         H         H         1.0       0.9593178699267705  0.1608810956952159  0.5771824006606748 1.0000   
         H         H         1.0       0.9783170623136312  0.12960801284521184           0.5597130695421848 1.0000   
         C         C         1.0       0.9040923772798068  0.13582160357510664           0.5920554823288516 1.0000   
         C         C         1.0       0.9130613386337644  0.16312357038442532           0.5827534534474766 1.0000   
         C         C         1.0       0.9175672179503253  0.18229514887998338           0.6083602085739633 1.0000   
         C         C         1.0       0.9191799358181367  0.1762201102669982  0.6424858446708233 1.0000   
         C         C         1.0       0.911443407506383   0.14960912200065002           0.6509895825886594 1.0000   
         C         C         1.0       0.9028438165822952  0.12948535466401037           0.6261181146694623 1.0000   
         C         C         1.0       0.930903273965078   0.17083574254075304           0.012975501972561476         1.0000   
         C         C         1.0       0.9010412228030386  0.16506818208544227           0.9990471546371494 1.0000   
         C         C         1.0       0.894158439262016   0.18515049022149388           0.003938143793864812         1.0000   
         C         C         1.0       0.8688690225387876  0.1821374892966421  0.9909047978032283 1.0000   
         C         C         1.0       0.8516013001481372  0.16076650756966504           0.9696241986090847 1.0000   
         C         C         1.0       0.8571142372715859  0.14000556692499697           0.9640960479911945 1.0000   
         C         C         1.0       0.880234938830665   0.14141858554232506           0.980745530310551  1.0000   
         C         C         1.0       0.9808454803428209  0.21524964294787932           0.02576441439488475          1.0000   
         C         C         1.0       0.0024398965034020392         0.24075598074884932          0.016984063425261597         1.0000   
         C         C         1.0       0.0017732835752708453         0.25257848806967814          0.9859897420372196 1.0000   
         C         C         1.0       0.9779872096304539  0.23991478044722547           0.9642452438772069 1.0000   
         C         C         1.0       0.9556206500584182  0.2146626758094613  0.9747764142056079 1.0000   
         C         C         1.0       0.9562715742623636  0.20155398851759504           0.0054732715831076195        1.0000   
         C         C         1.0       0.02765874865533524           0.2846949087568039 0.9772019497797194 1.0000   
         C         C         1.0       0.9939287720356929  0.3278062510094939  0.03415501150781752          1.0000   
         C         C         1.0       0.9713575324759017  0.3175695767796991  0.5604051767935302 1.0000   
         C         C         1.0       0.9912261964378163  0.3105813271368667  0.5521178842014275 1.0000   
         C         C         1.0       0.014076253604767386          0.2992023221435975 0.9988215747990569 1.0000   
         C         C         1.0       0.9947131144382625  0.30438510547707476           0.9835180765477715 1.0000   
         C         C         1.0       0.9837073192992697  0.3177221840302507  0.0015178230328696252        1.0000   
         C         C         1.0       0.03259469406062854           0.28711007604370625          0.9359794160365917 1.0000   
         C         C         1.0       0.036372980696288026          0.2680780101753596 0.9186829917483238 1.0000   
         C         C         1.0       0.045405478499932705          0.27252402123210295          0.8839831121732943 1.0000   
         C         C         1.0       0.04930527755544345           0.2952670146561851 0.8673776992489854 1.0000   
         C         C         1.0       0.04412089212393888           0.31367871902429195          0.8842489812186239 1.0000   
         C         C         1.0       0.03446823903333063           0.30964360119212714          0.9173682858245392 1.0000   
         C         C         1.0       0.07967693474014603           0.323721304324453  0.9978969508148582 1.0000   
         C         C         1.0       0.0836046836299034  0.3459083567839364  0.5648184258542656 1.0000   
         C         C         1.0       0.09654449535758992           0.33085366594108756          0.5709872108000558 1.0000   
         C         C         1.0       0.09502538323485066           0.2848902474351809 0.0014012415347774976        1.0000   
         C         C         1.0       0.0679771747306901  0.27636174619093495           0.9906981660542733 1.0000   
         C         C         1.0       0.05926509082779985           0.2958773148751602 0.9899473320949566 1.0000   
         H         H         1.0       0.902759111400424   0.1218660663406687  0.5696203803840918 1.0000   
         H         H         1.0       0.9237216152346825  0.20377848815037675           0.602850321551617  1.0000   
         H         H         1.0       0.9238269596012908  0.19107408251574473           0.6637808827397991 1.0000   
         H         H         1.0       0.8969032910926384  0.11021745650798954           0.6365048484581789 1.0000   
         H         H         1.0       0.9094961748584012  0.20239208066666944           0.018870206494314257         1.0000   
         H         H         1.0       0.8635750035757505  0.19656088656516177           0.9956120648040525 1.0000   
         H         H         1.0       0.8455492288802658  0.12205349748154172           0.9467132829903203 1.0000   
         H         H         1.0       0.8840988325666782  0.1250424573008195  0.9786875643413524 1.0000   
         H         H         1.0       0.969789388948874   0.21353044957060302           0.5842230858848009 1.0000   
         H         H         1.0       0.007990569568792294          0.26318140763523   0.570471631513964  1.0000   
         H         H         1.0       0.9740164709055736  0.24955700672933775           0.9420772750745533 1.0000   
         H         H         1.0       0.9389188232649537  0.20389395810271366           0.9550859472611731 1.0000   
         H         H         1.0       0.969851882578858   0.3229007978974758  0.5874788524550437 1.0000   
         H         H         1.0       0.0038920247944418396         0.30828149882965084          0.5717458670629842 1.0000   
         H         H         1.0       0.9866680589330413  0.29697002021744945           0.9573986861216929 1.0000   
         H         H         1.0       0.9731595442093486  0.3262061033995952  0.9868969019304814 1.0000   
         H         H         1.0       0.03422200950234666           0.25103092307202596          0.9325363769335797 1.0000   
         H         H         1.0       0.047022745555322265          0.2561306166192923 0.8700308151179504 1.0000   
         H         H         1.0       0.04681384081222739           0.33061826870087097          0.8709586754251488 1.0000   
         H         H         1.0       0.03384468744658009           0.3263664820532073 0.9289215462860352 1.0000   
         H         H         1.0       0.07403109423111665           0.3384492673628951 0.9909820626378891 1.0000   
         H         H         1.0       0.09577947016006554           0.36675839054591924          0.5724507514430324 1.0000   
         H         H         1.0       0.10128009589128308           0.2704884945624375 0.004261003021114762         1.0000   
         H         H         1.0       0.052074814041316086          0.2536297264715367 0.9857129625522546 1.0000   
         C         C         1.0       0.32647266298271593           0.5384502067682669 0.8400620281442851 1.0000   
         C         C         1.0       0.3209148879764407  0.5195764815180257  0.8145455643282437 1.0000   
         C         C         1.0       0.3000399695636459  0.49246658196558163           0.8179217232889808 1.0000   
         C         C         1.0       0.28207218959241953           0.4831051317595751 0.8456915171224001 1.0000   
         C         C         1.0       0.28370889442614305           0.5021870030030379 0.8700273740206871 1.0000   
         C         C         1.0       0.30695799150176456           0.5297924358424032 0.8679076769368883 1.0000   
         H         H         1.0       0.3344590177378006  0.525840912258632   0.7909268645933227 1.0000   
         H         H         1.0       0.295170612289386   0.4780579471890577  0.797894931396286  1.0000   
         H         H         1.0       0.27177464035632193           0.49510989565091923          0.8930856923622014 1.0000   
         H         H         1.0       0.3114263376589424  0.5450387884388186  0.8894218351060155 1.0000   
         C         C         1.0       0.2939112351145349  0.4610155449016481  0.9076368685037987 1.0000   
         C         C         1.0       0.2665076141499387  0.44396110200407896           0.8913067562059127 1.0000   
         C         C         1.0       0.2442690336499242  0.422973632983547   0.9112134687273863 1.0000   
         C         C         1.0       0.24795752298447074           0.4198162352959785 0.9458417286160702 1.0000   
         C         C         1.0       0.27566701308511166           0.43666722270462666          0.9607820516598876 1.0000   
         C         C         1.0       0.29875643471564794           0.45728632736686065          0.9418394755124858 1.0000   
         C         C         1.0       0.2620303286972387  0.4508446373648252  0.8523725823286429 1.0000   
         C         C         1.0       0.26597926643531483           0.42845334024864007          0.8320545500161506 1.0000   
         C         C         1.0       0.24416949355587672           0.40149879331972094          0.8258028874441278 1.0000   
         C         C         1.0       0.24867194396684306           0.3814779891197019 0.812025839405166  1.0000   
         C         C         1.0       0.2761965590794398  0.38755060139049885           0.805247016317179  1.0000   
         C         C         1.0       0.29887849980390363           0.41475324930526314          0.8156457423507647 1.0000   
         C         C         1.0       0.29376714709602064           0.43430803411839186          0.827762380151186  1.0000   
         C         C         1.0       0.21515370380536003           0.449455475171305  0.8628858616944833 1.0000   
         C         C         1.0       0.19224313000214074           0.4516373849290616 0.852534714361326  1.0000   
         C         C         1.0       0.1824644767464364  0.4469517554398341  0.8182915413850578 1.0000   
         C         C         1.0       0.19814579584350542           0.442102225160019  0.7949164594239241 1.0000   
         C         C         1.0       0.2242680265434761  0.4451100531233376  0.8051287647995164 1.0000   
         C         C         1.0       0.23277647730542106           0.44830429053202125          0.8394200213527875 1.0000   
         C         C         1.0       0.14943976643749116           0.4389138626362149 0.8077292768419695 1.0000   
         C         C         1.0       0.10626669682263136           0.3488103125614081 0.8184240771068416 1.0000   
         C         C         1.0       0.11523255822547189           0.36557919279459433          0.847740255078517  1.0000   
         C         C         1.0       0.12526663777431726           0.393679252363165  0.8434781749472    1.0000   
         C         C         1.0       0.13204553321471882           0.4061806565895784 0.8114060639406703 1.0000   
         C         C         1.0       0.12464254177303079           0.38805529665300004          0.7815395242881235 1.0000   
         C         C         1.0       0.11238154552321777           0.35996544366322913          0.7864948261750432 1.0000   
         C         C         1.0       0.15070809383253275           0.45329219256753306          0.7708046640613269 1.0000   
         C         C         1.0       0.1736885986499456  0.48050937114678377           0.7645681278423222 1.0000   
         C         C         1.0       0.1735851453134973  0.49480331185263554           0.7363433219157717 1.0000   
         C         C         1.0       0.1523932915532735  0.4819756493682767  0.711862591503327  1.0000   
         C         C         1.0       0.12892227751854532           0.45595292274165417          0.7197721902077926 1.0000   
         C         C         1.0       0.1288242176652493  0.44106614719987625           0.7462563887307981 1.0000   
         C         C         1.0       0.10692211006801317           0.4422890485738632 0.8328667587387998 1.0000   
         C         C         1.0       0.09602483730241289           0.4570478311408    0.8467996954947183 1.0000   
         C         C         1.0       0.11419850149127013           0.4835863506922498 0.8594480778153549 1.0000   
         C         C         1.0       0.1429947196511011  0.4946448713687037  0.8603595905837536 1.0000   
         C         C         1.0       0.15432318403101156           0.4805944230606019 0.8446984985735086 1.0000   
         C         C         1.0       0.1366587862342627  0.45394839752845817           0.8306477915615365 1.0000   
         H         H         1.0       0.31262799490077353           0.4768658657142567 0.894444305009842  1.0000   
         H         H         1.0       0.22275158003627926           0.4104041747599967 0.8997910760092402 1.0000   
         H         H         1.0       0.23014941807357406           0.40379842758714085          0.9610746494996205 1.0000   
         H         H         1.0       0.32114515171663793           0.4693944691578771 0.9514070398885389 1.0000   
         H         H         1.0       0.2241403964348739  0.397315107174986   0.8366627004862146 1.0000   
         H         H         1.0       0.2294894844698747  0.36079164786608475           0.8051903711823168 1.0000   
         H         H         1.0       0.32042292980673726           0.42162090261218493          0.8158271099674007 1.0000   
         H         H         1.0       0.3115600484020032  0.4546127039126654  0.8341149256975191 1.0000   
         H         H         1.0       0.21841972562061968           0.45065922409228765          0.8914400805401033 1.0000   
         H         H         1.0       0.18072727733263497           0.4553380700131808 0.8703059216094482 1.0000   
         H         H         1.0       0.19105768714339003           0.43792101829693575          0.7680048500269666 1.0000   
         H         H         1.0       0.23507625420513523           0.4398473031414212 0.7863385706024858 1.0000   
         H         H         1.0       0.11045181086139705           0.3565825994396992 0.8734718704960798 1.0000   
         H         H         1.0       0.12864575249538376           0.4064189748435409 0.8661349613450667 1.0000   
         H         H         1.0       0.13093735413982047           0.39717492347712163          0.7560532255562216 1.0000   
         H         H         1.0       0.10332476625046312           0.34562321439436455          0.7666270902641343 1.0000   
         H         H         1.0       0.1909200402268094  0.49347962444224    0.78243640948213   1.0000   
         H         H         1.0       0.19235003772801687           0.5161684587232633 0.7347355841973768 1.0000   
         H         H         1.0       0.11065083276668485           0.4467830792092751 0.7049478375707636 1.0000   
         H         H         1.0       0.11087132456463848           0.41987689972111747          0.7520479165312118 1.0000   
         H         H         1.0       0.09392654565696056           0.42114261761657384          0.8238847807542223 1.0000   
         H         H         1.0       0.07209868665172935           0.4469543114415561 0.8454656510122612 1.0000   
         H         H         1.0       0.15801667846132442           0.5148240664926814 0.8683470402911969 1.0000   
         H         H         1.0       0.17743489178001084           0.4910185924452521 0.8437661987127077 1.0000   
         C         C         1.0       0.26360442707096055           0.3548054529304737 0.732932086727842  1.0000   
         C         C         1.0       0.23749341092064422           0.33836008334811624          0.716305474323077  1.0000   
         C         C         1.0       0.23382460580600617           0.34600754604889217          0.6831994056308291 1.0000   
         C         C         1.0       0.2571365329529169  0.36882704084584467           0.6655254394575005 1.0000   
         C         C         1.0       0.28417779976018115           0.38398694451672066          0.683106538706869  1.0000   
         C         C         1.0       0.2865809405490498  0.37609294651380915           0.7162950947346779 1.0000   
         H         H         1.0       0.218037019341282   0.3209635138945043  0.7280931386261315 1.0000   
         H         H         1.0       0.21319768558113641           0.3301438503614007 0.6705196258579753 1.0000   
         H         H         1.0       0.3053730990067729  0.3971033773411652  0.6678402636917748 1.0000   
         H         H         1.0       0.30686635507731463           0.3850860822915073 0.7300752924654613 1.0000   
         C         C         1.0       0.2881375576236507  0.42637053267801167           0.6232157869814224 1.0000   
         C         C         1.0       0.2803133673795076  0.4009132737805339  0.6071849074668613 1.0000   
         C         C         1.0       0.2923571778075126  0.40319782101095997           0.5733633806891587 1.0000   
         C         C         1.0       0.3021565769939771  0.4022010427222486  0.04986101556127909          1.0000   
         C         C         1.0       0.29802971496983616           0.42369612264013196          0.0531563564946651 1.0000   
         C         C         1.0       0.30738627951223857           0.4519141322470323 0.6085499736870911 1.0000   
         C         C         1.0       0.25638962537549725           0.3721044870088761 0.623501886372507  1.0000   
         C         C         1.0       0.22689192893392549           0.3705275693328024 0.6118997220402984 1.0000   
         C         C         1.0       0.21951445022878427           0.36798465738885155          0.5770060476227229 1.0000   
         C         C         1.0       0.1964999274301973  0.36734741467947846           0.565851384269786  1.0000   
         C         C         1.0       0.18005558719206557           0.37281652999456283          0.5886523594023265 1.0000   
         C         C         1.0       0.189162456908184   0.379647042319642   0.6225825797906407 1.0000   
         C         C         1.0       0.21307953175461722           0.3796864880313555 0.634794481921174  1.0000   
         C         C         1.0       0.28458889849223623           0.3486299738450658 0.6129444614878359 1.0000   
         C         C         1.0       0.2881006651415518  0.3285770029186716  0.5985219691820706 1.0000   
         C         C         1.0       0.2665679140496347  0.30636462442932083           0.5796691787913136 1.0000   
         C         C         1.0       0.2390822511124062  0.302689059554209   0.577863733195052  1.0000   
         C         C         1.0       0.23539372677571505           0.32165850625294595          0.5959401638018124 1.0000   
         C         C         1.0       0.25828382671606814           0.34647878382080577          0.6099892599844131 1.0000   
         C         C         1.0       0.2731360362775379  0.2853204982191989  0.5603203124137707 1.0000   
         C         C         1.0       0.30577616512815436           0.33733138678282854          0.9707874244577466 1.0000   
         C         C         1.0       0.33055225377004116           0.3466395030016363 0.9910702151564429 1.0000   
         C         C         1.0       0.3298062952353147  0.3326231451534163  0.019614772258383484         1.0000   
         C         C         1.0       0.30334579415099344           0.3074799668578195 0.028132687988492  1.0000   
         C         C         1.0       0.27999518848014754           0.3014105278921159 0.008394187267214637         1.0000   
         C         C         1.0       0.27965638646428337           0.3160801818565762 0.9811765677489259 1.0000   
         C         C         1.0       0.24673446864104295           0.25413460810001964          0.5546794419357106 1.0000   
         C         C         1.0       0.2252950910447009  0.23820828236228273           0.5782168077830496 1.0000   
         C         C         1.0       0.20155331763926632           0.2116064771224449 0.5699767951211249 1.0000   
         C         C         1.0       0.24180314676140519           0.19691324115487954          0.03600089901692005          1.0000   
         C         C         1.0       0.25780505586194896           0.2155451663074436 0.010435996888503496         1.0000   
         C         C         1.0       0.2777649801721509  0.24271428023400782           0.01900654333246843          1.0000   
         C         C         1.0       0.31117841293671006           0.27170791135380123          0.5687332630415708 1.0000   
         C         C         1.0       0.3282107009149933  0.2664612622096421  0.5883263195946928 1.0000   
         C         C         1.0       0.3284419238942496  0.2693149033115992  0.6238651117683984 1.0000   
         C         C         1.0       0.30742335343637045           0.27226776771070604          0.6385097546798512 1.0000   
         C         C         1.0       0.29178776253014305           0.2791218272550033 0.6179686869771518 1.0000   
         C         C         1.0       0.2938689459113393  0.2799447009845984  0.5822709701070607 1.0000   
         H         H         1.0       0.2826158960962012  0.4270555254376452  0.6493441668155653 1.0000   
         H         H         1.0       0.2867931553180775  0.3848369851473338  0.5578485851709196 1.0000   
         H         H         1.0       0.3129198648660359  0.3998092465241708  0.029034921480175946         1.0000   
         H         H         1.0       0.314891355435122   0.4717217201324725  0.6238264100175521 1.0000   
         H         H         1.0       0.23048867712180085           0.3635155397905511 0.5573760432295536 1.0000   
         H         H         1.0       0.18509009138687352           0.30599317496906236          0.042259493470390375         1.0000   
         H         H         1.0       0.17608340904230704           0.3811981449495163 0.6420603118775917 1.0000   
         H         H         1.0       0.21945597814352316           0.38454461279246827          0.6609516692627032 1.0000   
         H         H         1.0       0.3027218431605078  0.36652664047420314           0.6249272186999315 1.0000   
         H         H         1.0       0.30880563102291547           0.32911456036123593          0.6028276472423416 1.0000   
         H         H         1.0       0.2234023256186299  0.28699383904145315           0.5603667247799731 1.0000   
         H         H         1.0       0.2143125315190657  0.3193220274791159  0.598522144302312  1.0000   
         H         H         1.0       0.35215736238059825           0.36499618580787424          0.9849324234041502 1.0000   
         H         H         1.0       0.33088493693055737           0.32914270916828486          0.5499715552631742 1.0000   
         H         H         1.0       0.25753921469553614           0.2815431197116268 0.013164032595643027         1.0000   
         H         H         1.0       0.25963110202312945           0.3076234000050498 0.964484831707181  1.0000   
         H         H         1.0       0.22734268597491528           0.24397293043380913          0.6031479417140867 1.0000   
         H         H         1.0       0.18532840393918307           0.19784640203026857          0.5874737257825265 1.0000   
         H         H         1.0       0.2559790817543266  0.20869920688907068           0.9850002904160179 1.0000   
         H         H         1.0       0.29351847059320374           0.256693619184052  0.9997248297025123 1.0000   
         H         H         1.0       0.35003119536429605           0.2937765569996226 0.02123922027133518          1.0000   
         H         H         1.0       0.34489519354791404           0.26552424020834814          0.5756576671790439 1.0000   
         H         H         1.0       0.30653357076487014           0.27307109857265416          0.6663904065334906 1.0000   
         H         H         1.0       0.278251166443538   0.2847877389069264  0.627360655129704  1.0000   
         C         C         1.0       0.30526053347654375           0.8190957797409226 0.8234979742785762 1.0000   
         C         C         1.0       0.29714528696071757           0.8305572553053739 0.798014181437549  1.0000   
         C         C         1.0       0.28451660636642273           0.8447722449146752 0.8088421065124952 1.0000   
         C         C         1.0       0.2804012793890656  0.8477025863123127  0.8434885304952557 1.0000   
         C         C         1.0       0.29841378116678224           0.8445840852047187 0.8655114412864622 1.0000   
         C         C         1.0       0.30882316341803956           0.8283424541935899 0.8575406948174037 1.0000   
         H         H         1.0       0.29724445989374315           0.8239974228108032 0.7700247416608107 1.0000   
         H         H         1.0       0.28037275477755075           0.8557064775477021 0.7898362486197182 1.0000   
         H         H         1.0       0.29907518338380584           0.8520306555207499 0.8915270316337339 1.0000   
         H         H         1.0       0.318194501798167   0.8221263798876624  0.8771220518500957 1.0000   
         C         C         1.0       0.2359957451193077  0.8145627764358776  0.8958060168905799 1.0000   
         C         C         1.0       0.2457472205903842  0.8427748701582488  0.8930969796100089 1.0000   
         C         C         1.0       0.24427561889239433           0.857101243554487  0.9220308211815378 1.0000   
         C         C         1.0       0.23820138289589862           0.8451610002207256 0.9534238752644966 1.0000   
         C         C         1.0       0.23136573844258193           0.8177749404751169 0.9574412001830458 1.0000   
         C         C         1.0       0.22801618844558244           0.8031336400492015 0.9280587867711062 1.0000   
         C         C         1.0       0.2593814533004241  0.8580944212833208  0.8562987479078473 1.0000   
         C         C         1.0       0.2312488556949561  0.8475000759793356  0.833079924673673  1.0000   
         C         C         1.0       0.21738190707629784           0.8622124632901687 0.833644732182554  1.0000   
         C         C         1.0       0.196854791402583   0.8565682699009836  0.8096778067227633 1.0000   
         C         C         1.0       0.18639250149453704           0.8342048124024017 0.7870338252866046 1.0000   
         C         C         1.0       0.19762750897284354           0.8173596298648135 0.7888518898074814 1.0000   
         C         C         1.0       0.21738813227716494           0.8221623621332655 0.8146409312887887 1.0000   
         C         C         1.0       0.30467962526837994           0.9071181329060785 0.8783644185356626 1.0000   
         C         C         1.0       0.32771547556343233           0.9346810187266118 0.872404115198927  1.0000   
         C         C         1.0       0.33157523546486195           0.9470892327720023 0.8406635594186743 1.0000   
         C         C         1.0       0.3103184165139949  0.930652780833276   0.815293513570504  1.0000   
         C         C         1.0       0.2858161398973155  0.9044377690048426  0.8250893601507256 1.0000   
         C         C         1.0       0.2826102000218728  0.8919636477595663  0.8552187323971614 1.0000   
         C         C         1.0       0.36009416046107123           0.9772169774491207 0.8320939324958398 1.0000   
         C         C         1.0       0.33033569809319396           0.03252767166766524          0.8068757959395436 1.0000   
         C         C         1.0       0.32463497818019443           0.020074911032679443         0.8391905273118272 1.0000   
         C         C         1.0       0.3312310530490333  0.0007331737237634695        0.8456097668244601 1.0000   
         C         C         1.0       0.3441916211879568  0.9932807164866487  0.8223606176546155 1.0000   
         C         C         1.0       0.34170663745311963           0.9993378545696201 0.7877730825526349 1.0000   
         C         C         1.0       0.3356422349873371  0.019008842759406175         0.7813842913960342 1.0000   
         C         C         1.0       0.37657794465017674           0.9738192143735561 0.8012032073056895 1.0000   
         C         C         1.0       0.37765366130565403           0.950081631282483  0.795620220808232  1.0000   
         C         C         1.0       0.39534031925550445           0.9492885025731933 0.7707643715516546 1.0000   
         C         C         1.0       0.4158322354743079  0.9736082975421969  0.7535428557395961 1.0000   
         C         C         1.0       0.41562124521802013           0.9968570685439867 0.7604503059102963 1.0000   
         C         C         1.0       0.3982379929741182  0.9980759412719802  0.7851278780240586 1.0000   
         C         C         1.0       0.39908667681867094           0.021679468486804687         0.8653364098677545 1.0000   
         C         C         1.0       0.4222085359464102  0.03577064111122796           0.8889608587657941 1.0000   
         C         C         1.0       0.43428643884298057           0.021917485284591365         0.9006992601132908 1.0000   
         C         C         1.0       0.42106282700187    0.9928955082154192  0.8941522675780589 1.0000   
         C         C         1.0       0.39651398109272884           0.9781728482150579 0.8747303279623243 1.0000   
         C         C         1.0       0.38494302148335074           0.9926193702023574 0.8603166329476519 1.0000   
         H         H         1.0       0.23307858580635568           0.8010694823305309 0.8740311894682266 1.0000   
         H         H         1.0       0.24858893821683567           0.878190737100991  0.9207094093529575 1.0000   
         H         H         1.0       0.23779240542304084           0.85610627049636   0.9777827049569817 1.0000   
         H         H         1.0       0.21967128408763834           0.7801266301602675 0.932461286721827  1.0000   
         H         H         1.0       0.22332883022006758           0.8791810978903156 0.8516365520144992 1.0000   
         H         H         1.0       0.1905938520586612  0.8710176584526907  0.8072308529579935 1.0000   
         H         H         1.0       0.18764770802841665           0.7997404466117279 0.7715861446807329 1.0000   
         H         H         1.0       0.2270147624502903  0.8097562290823437  0.815927060813399  1.0000   
         H         H         1.0       0.30255416297880855           0.8988196377556643 0.9042257149520101 1.0000   
         H         H         1.0       0.3409474369746785  0.9440961197412453  0.8949540155937602 1.0000   
         H         H         1.0       0.312109247942122   0.93710506277403    0.7895760064408638 1.0000   
         H         H         1.0       0.2701567252801117  0.891893404071028   0.8052957600751166 1.0000   
         H         H         1.0       0.3187151675914604  0.027734265299459215         0.8603216105061463 1.0000   
         H         H         1.0       0.32879771839828686           0.9949543357552854 0.8713413740578916 1.0000   
         H         H         1.0       0.3500413822001226  0.9933533299164536  0.7665693180315349 1.0000   
         H         H         1.0       0.3364009306406923  0.02557476453239893           0.755774608371126  1.0000   
         H         H         1.0       0.36606505269023504           0.9320799661910841 0.8125815796641782 1.0000   
         H         H         1.0       0.3961732940852859  0.9298152093813646  0.769782114449094  1.0000   
         H         H         1.0       0.4316460218523528  0.01673710718817878           0.7476174567943216 1.0000   
         H         H         1.0       0.40512846062807467           0.019800536913381572         0.7928846110715557 1.0000   
         H         H         1.0       0.39105683773369704           0.03336703085116999          0.8556031169798876 1.0000   
         H         H         1.0       0.4300628331964458  0.05689149010159489           0.8948408072464102 1.0000   
         H         H         1.0       0.4337183059893716  0.9844092818832785  0.9031320598979226 1.0000   
         H         H         1.0       0.3874478933511727  0.9556146728643304  0.8688763550005885 1.0000   
         C         C         1.0       0.17869725168350423           0.8539889332759348 0.6920977641577822 1.0000   
         C         C         1.0       0.16747549970811307           0.8693080831688652 0.6843704898782036 1.0000   
         C         C         1.0       0.15772717663186148           0.8688721441405665 0.6515455110877345 1.0000   
         C         C         1.0       0.1595771479667976  0.852624912769133   0.6253063079572913 1.0000   
         C         C         1.0       0.16732288207722906           0.8336410848904151 0.6348473043067366 1.0000   
         C         C         1.0       0.178178061912066   0.8363665224658122  0.6680200551469981 1.0000   
         H         H         1.0       0.16639727987886016           0.8812855934956693 0.705241732282508  1.0000   
         H         H         1.0       0.15067462404697785           0.8819632056096758 0.6487335116350511 1.0000   
         H         H         1.0       0.16909949073440123           0.8181223094329638 0.6194585926048404 1.0000   
         H         H         1.0       0.1852804940661411  0.8222019976964975  0.6743788262528674 1.0000   
         C         C         1.0       0.19111138305774075           0.8470924791893802 0.5560917281010486 1.0000   
         C         C         1.0       0.16193707465312673           0.8399689420956754 0.5574909815937266 1.0000   
         C         C         1.0       0.1740326771997125  0.8351127751061601  0.025837783002206294         1.0000   
         C         C         1.0       0.1779031269860594  0.8130932115455721  0.019927855186819388         1.0000   
         C         C         1.0       0.2030911033171827  0.8158763686199116  0.03287275937812817          1.0000   
         C         C         1.0       0.2220175324356142  0.8376887815704562  0.054583506232947165         1.0000   
         C         C         1.0       0.15243827700474163           0.8550469799179188 0.5857303087034821 1.0000   
         C         C         1.0       0.17087276346641173           0.8847675510125796 0.5703029747226355 1.0000   
         C         C         1.0       0.1943415132298345  0.8946741432682239  0.9862332120966953 1.0000   
         C         C         1.0       0.21160134412731593           0.906057215797608  0.9577319579140342 1.0000   
         C         C         1.0       0.2075189983940614  0.9377961357699446  0.5408811018530875 1.0000   
         C         C         1.0       0.21343441399469046           0.9313818450924001 0.5732180050125906 1.0000   
         C         C         1.0       0.19618396485576126           0.9062142600510033 0.5869710606147949 1.0000   
         C         C         1.0       0.09770113555344973           0.8110786371063522 0.5883140955083195 1.0000   
         C         C         1.0       0.0696657282806765  0.8003952877670117  0.5747913045937239 1.0000   
         C         C         1.0       0.06246181319378441           0.8176519818214414 0.5602195404223141 1.0000   
         C         C         1.0       0.08035782209806658           0.8464231811980889 0.5661952903846331 1.0000   
         C         C         1.0       0.10654011781201565           0.857797145741797  0.5821494206566656 1.0000   
         C         C         1.0       0.11739867392101795           0.8406895375861668 0.5872149789676339 1.0000   
         C         C         1.0       0.03611501025577816           0.8048465376249014 0.5339437978201419 1.0000   
         C         C         1.0       0.10342040597322694           0.8119661134724229 0.9326530959045058 1.0000   
         C         C         1.0       0.09064374531519438           0.7958615855759321 0.9599707958226523 1.0000   
         C         C         1.0       0.07790295227806508           0.804009594575793  0.9837191204964341 1.0000   
         C         C         1.0       0.0777494400680975  0.8277088934035413  0.98186475908477   1.0000   
         C         C         1.0       0.09211438684868503           0.8443433101079156 0.9535143821985876 1.0000   
         C         C         1.0       0.1054331882636899  0.8372007076808272  0.9294180130445562 1.0000   
         C         C         1.0       0.05267415483522142           0.8542506441315558 0.010800006344670043         1.0000   
         C         C         1.0       0.018865258418855335          0.8385333691252069 0.549347677567963  1.0000   
         C         C         1.0       0.041553670204508286          0.8864319443165332 0.033736945549420305         1.0000   
         C         C         1.0       0.03352268118728641           0.8896221336889581 0.0020779425163721665        1.0000   
         C         C         1.0       0.03615725176603468           0.8760553343133485 0.9738958045845911 1.0000   
         C         C         1.0       0.04450262608883948           0.857889730367962  0.9781355384995944 1.0000   
         C         C         1.0       0.9871437209772614  0.7571437983840251  0.5257297961461183 1.0000   
         C         C         1.0       0.9613001335808784  0.7341048528091796  0.5368260482935555 1.0000   
         C         C         1.0       0.9576700057964991  0.7281729890826699  0.573034269247008  1.0000   
         C         C         1.0       0.9776811572644775  0.749492249678607   0.5959703051670896 1.0000   
         C         C         1.0       0.0025876279162639904         0.7730573519969632 0.583829595105267  1.0000   
         C         C         1.0       0.00816692551457332           0.7768679878392735 0.5480394601204523 1.0000   
         H         H         1.0       0.20499668235299479           0.8589931446504757 0.5768925230386208 1.0000   
         H         H         1.0       0.1543619154355983  0.8317817925962165  0.012297542613900925         1.0000   
         H         H         1.0       0.16278691881767368           0.7946588173153483 0.003600480601524847         1.0000   
         H         H         1.0       0.24155339961981817           0.8397437199044347 0.061255680754123354         1.0000   
         H         H         1.0       0.17259696531406854           0.8765425901772499 0.9831603687242468 1.0000   
         H         H         1.0       0.20282468078364016           0.9000453986770235 0.9311779842282139 1.0000   
         H         H         1.0       0.23486288652147316           0.9449297411322234 0.5855613523807937 1.0000   
         H         H         1.0       0.20254820878434798           0.9019393788472013 0.61206849210345   1.0000   
         H         H         1.0       0.10656461078176399           0.7987331730760148 0.590343238231731  1.0000   
         H         H         1.0       0.055120482962061894          0.7781621847183615 0.5696582030504466 1.0000   
         H         H         1.0       0.07883880365475703           0.8632620595052092 0.5561290469173099 1.0000   
         H         H         1.0       0.12184372281035588           0.8809580373230576 0.5834631869794972 1.0000   
         H         H         1.0       0.09004905069963183           0.7761398433592759 0.9663882772818484 1.0000   
         H         H         1.0       0.06912654403989348           0.7909970582856759 0.006600883984728911         1.0000   
         H         H         1.0       0.0931675616976543  0.8637740930632933  0.9523920719072123 1.0000   
         H         H         1.0       0.11717228333312363           0.8500760912451578 0.9074951935664303 1.0000   
         H         H         1.0       0.022145729390137037          0.8366984295174572 0.5770542532634227 1.0000   
         H         H         1.0       0.010020348834756554          0.8709414902697847 0.5588542492638507 1.0000   
         H         H         1.0       0.029986962692340136          0.8808895715005678 0.9485074618354539 1.0000   
         H         H         1.0       0.04546619836789079           0.8462325411899535 0.9560874520642864 1.0000   
         H         H         1.0       0.015416503533993042          0.7901374064965079 0.9912304462208577 1.0000   
         H         H         1.0       0.9444761482274097  0.7202496703765535  0.519314282428532  1.0000   
         H         H         1.0       0.9782916353381675  0.7468249292031894  0.6255076632791049 1.0000   
         H         H         1.0       0.017049440651704034          0.7889435171436797 0.6000880160681428 1.0000   
         C         C         1.0       0.6798106603852265  0.22984099580375433           0.6701734057736538 1.0000   
         C         C         1.0       0.6652517924002778  0.20961669937992836           0.6465542702682382 1.0000   
         C         C         1.0       0.6439257484223359  0.1825025081101238  0.6561847189963688 1.0000   
         C         C         1.0       0.6356347321578744  0.17797451862390407           0.6902596050775963 1.0000   
         C         C         1.0       0.6463969667223118  0.20067662778271197           0.7121810339569771 1.0000   
         C         C         1.0       0.6703292564658095  0.22655828561699506           0.7030785550393094 1.0000   
         H         H         1.0       0.6702223980114862  0.21159565644217376           0.619593549812259  1.0000   
         H         H         1.0       0.6351580291516046  0.1659943854034476  0.6363784838636932 1.0000   
         H         H         1.0       0.6404287256666862  0.2003167299837895  0.7387000423063272 1.0000   
         H         H         1.0       0.6807207770289219  0.24407802295544798           0.7203269355330173 1.0000   
         C         C         1.0       0.6604210046628445  0.1628741428756354  0.7499870534289038 1.0000   
         C         C         1.0       0.631665236304824   0.1440853320240375  0.7418462029608252 1.0000   
         C         C         1.0       0.6144383809411162  0.1274728682203618  0.7689769674834814 1.0000   
         C         C         1.0       0.6230332608739314  0.13203921835306762           0.8033109960697039 1.0000   
         C         C         1.0       0.6510524882469636  0.154374535945737   0.810292815652072  1.0000   
         C         C         1.0       0.6700004710376709  0.16944151601899976           0.7839189604907632 1.0000   
         C         C         1.0       0.6190012303712956  0.14643893640966252           0.7052797570418344 1.0000   
         C         C         1.0       0.6194911345123403  0.12357424265589063           0.683022685825391  1.0000   
         C         C         1.0       0.5955502715091177  0.09595819245378194           0.6797382694613643 1.0000   
         C         C         1.0       0.5980216150057871  0.0754759255139683  0.6639329597145253 1.0000   
         C         C         1.0       0.6230084864030035  0.08290604923440312           0.6468499253851054 1.0000   
         C         C         1.0       0.6458321845992757  0.11059426868024094           0.6465868322569984 1.0000   
         C         C         1.0       0.644263701299662   0.12945691053441868           0.6660640795160785 1.0000   
         C         C         1.0       0.5758883644680592  0.14752694673726857           0.7324645506152879 1.0000   
         C         C         1.0       0.5476830786947382  0.14059208738229137           0.7357061897121792 1.0000   
         C         C         1.0       0.5294852167196833  0.12783469134789582           0.7068864155765302 1.0000   
         C         C         1.0       0.5406223396636088  0.12468276932517802           0.6757774574122425 1.0000   
         C         C         1.0       0.569400138700103   0.13268456176655105           0.6742912067096721 1.0000   
         C         C         1.0       0.586911458434799   0.14137781885684736           0.7037544746898976 1.0000   
         C         C         1.0       0.49497626451506876           0.10976366045206533          0.7113835165387771 1.0000   
         C         C         1.0       0.48298168622710347           0.02764100933167346          0.7300213163109276 1.0000   
         C         C         1.0       0.4934191392653898  0.04713287984369368           0.7568988055306948 1.0000   
         C         C         1.0       0.49696687869190825           0.07301943799518165          0.7521868197456824 1.0000   
         C         C         1.0       0.49291689733370053           0.08109206260896906          0.7202625605476699 1.0000   
         C         C         1.0       0.489539130327989   0.063623441302237   0.693845527856915  1.0000   
         C         C         1.0       0.48351613172465097           0.03752902683344961          0.6984448717434039 1.0000   
         C         C         1.0       0.4760687034387564  0.10797163450903019           0.6791467094015562 1.0000   
         C         C         1.0       0.486593431500004   0.12998332319048914           0.65682055725748   1.0000   
         C         C         1.0       0.4695269014288322  0.12833073131467962           0.6308006204597892 1.0000   
         C         C         1.0       0.4416709677702315  0.10597926315114438           0.6264181704917531 1.0000   
         C         C         1.0       0.4306120662931391  0.0839779302676041  0.6480783647842709 1.0000   
         C         C         1.0       0.44665358277994266           0.08530858471007367          0.6755058452639666 1.0000   
         C         C         1.0       0.4614840496800297  0.1036655834710143  0.7616215905342653 1.0000   
         C         C         1.0       0.4500182334732844  0.11494259440240522           0.7832568067877166 1.0000   
         C         C         1.0       0.46063158646620544           0.14356472566397263          0.7827039807210636 1.0000   
         C         C         1.0       0.4830517909945247  0.16016255163582555           0.7620576619417537 1.0000   
         C         C         1.0       0.49494724756690306           0.14993547894731973          0.7400174006084653 1.0000   
         C         C         1.0       0.4843999363530905  0.12185300350549606           0.7397799729468826 1.0000   
         H         H         1.0       0.6759578290583184  0.17518278885315486           0.7295397449565454 1.0000   
         H         H         1.0       0.5911663065192045  0.11222883148455928           0.7635281246605439 1.0000   
         H         H         1.0       0.6078089114166515  0.11835576043501232           0.8238640510872983 1.0000   
         H         H         1.0       0.6906476315290979  0.18767130952375768           0.7906186685462554 1.0000   
         H         H         1.0       0.5761105659243374  0.09286335516613169           0.6902947938407031 1.0000   
         H         H         1.0       0.578750082340669   0.05278828004727232           0.6627640446499744 1.0000   
         H         H         1.0       0.6668814535567551  0.11863062717791924           0.6331550324891013 1.0000   
         H         H         1.0       0.665191285295984   0.15102785757708456           0.6711847204548276 1.0000   
         H         H         1.0       0.588986813581933   0.15806206659818148           0.7548665159574245 1.0000   
         H         H         1.0       0.5411563263844746  0.14491182293447044           0.7608026378427305 1.0000   
         H         H         1.0       0.525447475805713   0.11337209058392554           0.6532542248150741 1.0000   
         H         H         1.0       0.5783531311702538  0.13135181000747492           0.6506642116406107 1.0000   
         H         H         1.0       0.49625088694041913           0.04023825671930558          0.7825658713055318 1.0000   
         H         H         1.0       0.5011311092949622  0.08712950155413979           0.7750574016176093 1.0000   
         H         H         1.0       0.4865040065653065  0.06716868263240991           0.6674493125733233 1.0000   
         H         H         1.0       0.47624316880019546           0.023396954627196376         0.6772691790513119 1.0000   
         H         H         1.0       0.507520083310896   0.14832645139951164           0.657814085228155  1.0000   
         H         H         1.0       0.4770585627070483  0.14618527182912266           0.6121211762026924 1.0000   
         H         H         1.0       0.4101812887536942  0.06355565352061557           0.6411535476141896 1.0000   
         H         H         1.0       0.43757371631080944           0.06910200088613072          0.695844332932569  1.0000   
         H         H         1.0       0.45328253873122615           0.08103380964011349          0.7597843832888619 1.0000   
         H         H         1.0       0.4300915448555698  0.10286508007129355           0.796119862146753  1.0000   
         H         H         1.0       0.49477438327195616           0.18284985415203314          0.7630179901788025 1.0000   
         H         H         1.0       0.5107796715865861  0.16347008773572927           0.7207040431934051 1.0000   
         C         C         1.0       0.6244109768521736  0.052096424215525516         0.5706910059837839 1.0000   
         C         C         1.0       0.5717545902793353  0.02281111420306625           0.03232460916506663          1.0000   
         C         C         1.0       0.5714405790613877  0.027799302750358912         0.9973673669383329 1.0000   
         C         C         1.0       0.5953246663575357  0.048948822001587455         0.9788767066590508 1.0000   
         C         C         1.0       0.620758394091498   0.06303566093912545           0.0003001387227827834        1.0000   
         C         C         1.0       0.6215630399286697  0.0574153290640013  0.03433229734565657          1.0000   
         H         H         1.0       0.6149497874618962  0.009232211356196451         0.5724720255693734 1.0000   
         H         H         1.0       0.551035854559483   0.013515362908250506         0.982584178018554  1.0000   
         H         H         1.0       0.6397985150581769  0.07810554931152532           0.9891379169499945 1.0000   
         H         H         1.0       0.6433308707448386  0.06675418632693665           0.047649523173057595         1.0000   
         C         C         1.0       0.6296108658594068  0.10584917811531747           0.9369046780897877 1.0000   
         C         C         1.0       0.619212683838899   0.08053590674819278           0.9198813001038448 1.0000   
         C         C         1.0       0.6304944566343358  0.08155194737209825           0.8871356916464084 1.0000   
         C         C         1.0       0.6496870558990604  0.10720569161335386           0.8724663923313878 1.0000   
         C         C         1.0       0.6575201285698553  0.1318566092420125  0.8902180709491552 1.0000   
         C         C         1.0       0.6484315107274499  0.13120288034280303           0.9237046157950242 1.0000   
         C         C         1.0       0.5940649822712789  0.052836235243180596         0.9372767937510704 1.0000   
         C         C         1.0       0.5671926454943443  0.05393728594228264           0.9242301942258411 1.0000   
         C         C         1.0       0.5572988625316215  0.04743145770376067           0.8902700827178465 1.0000   
         C         C         1.0       0.5306504954775699  0.043097784085573965         0.880458775288377  1.0000   
         C         C         1.0       0.5165107457256608  0.05114950502028992           0.9035298312707101 1.0000   
         C         C         1.0       0.5266605245098189  0.05801243556411917           0.9371899141850234 1.0000   
         C         C         1.0       0.5512884568576635  0.05923312105490375           0.9469984641083524 1.0000   
         C         C         1.0       0.6220958435766263  0.02967312019958146           0.9270340575184552 1.0000   
         C         C         1.0       0.624346110531729   0.008268297680080972         0.9136520278629161 1.0000   
         C         C         1.0       0.6019726047732462  0.9826305111660627  0.9025153565761459 1.0000   
         C         C         1.0       0.5757940204272427  0.9798208448763178  0.9027354699295604 1.0000   
         C         C         1.0       0.5720707434941786  0.0009082428370221773        0.9152289551155018 1.0000   
         C         C         1.0       0.5951831686901708  0.026591554854619393         0.9261831876219666 1.0000   
         C         C         1.0       0.6070251152237446  0.9611463141753199  0.881266058238459  1.0000   
         C         C         1.0       0.6341774198235967  0.01811445644315124           0.7921008112920965 1.0000   
         C         C         1.0       0.6548643346156985  0.018594264915823278         0.8129408988487509 1.0000   
         C         C         1.0       0.6464463750426308  0.9993293526701076  0.8386220812670925 1.0000   
         C         C         1.0       0.6174961104760989  0.9787743178224263  0.8450889882394509 1.0000   
         C         C         1.0       0.5979091545045989  0.977119605965499   0.8199129625257399 1.0000   
         C         C         1.0       0.6046231102823723  0.9964329496168249  0.7936784290593057 1.0000   
         C         C         1.0       0.5816891093540298  0.9296049148876822  0.878400976790007  1.0000   
         C         C         1.0       0.5641798946920763  0.914634080665549   0.9061177880006487 1.0000   
         C         C         1.0       0.5409167371220888  0.8858301149285484  0.9013840103463123 1.0000   
         C         C         1.0       0.5374965646448534  0.8724680615548455  0.8704394706840592 1.0000   
         C         C         1.0       0.5555856248118308  0.8869587339995144  0.8432493644659512 1.0000   
         C         C         1.0       0.5761038055554102  0.9152261874024201  0.8474802118356798 1.0000   
         C         C         1.0       0.6482384190460648  0.9516629249956782  0.8834773905885113 1.0000   
         C         C         1.0       0.6715424540614101  0.95252298241625    0.8983861846093655 1.0000   
         C         C         1.0       0.676661665927118   0.9567584252998634  0.9336422671099206 1.0000   
         C         C         1.0       0.6584641210207387  0.9618149413639383  0.9539117057085496 1.0000   
         C         C         1.0       0.6367924273930654  0.9618294312984805  0.9379013598962987 1.0000   
         C         C         1.0       0.6301944008148461  0.9570483889616509  0.9022673881004344 1.0000   
         H         H         1.0       0.6231095938370194  0.10617960754620491           0.9634510636796342 1.0000   
         H         H         1.0       0.6217111238220021  0.06259079022853697           0.8700185868885669 1.0000   
         H         H         1.0       0.6567983666401066  0.10896185379169389           0.8462178315819558 1.0000   
         H         H         1.0       0.6573602252406473  0.15004895639783988           0.9396660308790289 1.0000   
         H         H         1.0       0.5670171417538777  0.03985711171442663           0.8713367536752211 1.0000   
         H         H         1.0       0.5217166260310718  0.03666569485020221           0.8536480501010055 1.0000   
         H         H         1.0       0.5160806783621426  0.06378413273732142           0.9553462191105808 1.0000   
         H         H         1.0       0.5591903687255255  0.06833816299019224           0.9713744607515866 1.0000   
         H         H         1.0       0.6411452284756499  0.047339968069921134         0.9391703667722886 1.0000   
         H         H         1.0       0.6470032773582436  0.01217710010207762           0.9137816784449782 1.0000   
         H         H         1.0       0.5591551030738162  0.9614397390851015  0.8921537380125197 1.0000   
         H         H         1.0       0.549892922732865   0.9964131685232256  0.9175784064127568 1.0000   
         H         H         1.0       0.6769563539153185  0.033590166804710275         0.8073833783789514 1.0000   
         H         H         1.0       0.6647053042620249  0.004700602275347299         0.8567082234441165 1.0000   
         H         H         1.0       0.5763120614086245  0.9622854830866786  0.8221803586399503 1.0000   
         H         H         1.0       0.5874653214973923  0.994480867824583   0.7781481052184387 1.0000   
         H         H         1.0       0.5666685159709937  0.9232157844235751  0.9309206399733481 1.0000   
         H         H         1.0       0.5245931967789467  0.8734394616534733  0.9213787657533373 1.0000   
         H         H         1.0       0.5511626974564992  0.8768035877811077  0.8193415441760709 1.0000   
         H         H         1.0       0.58961379226239    0.9259551647428402  0.8249700610998801 1.0000   
         H         H         1.0       0.646675059718306   0.9476917759941023  0.8543250560137197 1.0000   
         H         H         1.0       0.6872535552186194  0.9516639675348793  0.8830451825025969 1.0000   
         H         H         1.0       0.6607406240111781  0.9632708976417248  0.9823914024639778 1.0000   
         H         H         1.0       0.6234940534371556  0.9662029276436706  0.9528698726309202 1.0000   
         C         C         1.0       0.3822013966874413  0.26329758856471236           0.9094649321445654 1.0000   
         C         C         1.0       0.40976657020447027           0.26866051259931156          0.9053085575665905 1.0000   
         C         C         1.0       0.4190755716040737  0.2663017433754542  0.8730793191130679 1.0000   
         C         C         1.0       0.3992262227462035  0.25521372422928346           0.8455156983186708 1.0000   
         C         C         1.0       0.37350950350881346           0.2526150578938247 0.8497625059877603 1.0000   
         C         C         1.0       0.36303078647974407           0.2547212152729018 0.8806979315589425 1.0000   
         H         H         1.0       0.42639945843109567           0.27615792538362954          0.9241697908369075 1.0000   
         H         H         1.0       0.4421120082216969  0.2736009551344429  0.8720504429755996 1.0000   
         H         H         1.0       0.36144053387653957           0.2516953635503402 0.8274097648951426 1.0000   
         H         H         1.0       0.34291070714272726           0.2535428375426827 0.8822715618352156 1.0000   
         C         C         1.0       0.3620220785817553  0.21444524898992204           0.7806041976244246 1.0000   
         C         C         1.0       0.3887774094168203  0.23989274454170698           0.7750167700796007 1.0000   
         C         C         1.0       0.3960458316382594  0.25087190232227535           0.741942663949698  1.0000   
         C         C         1.0       0.378067694171583   0.23584035422565128           0.7151199945593651 1.0000   
         C         C         1.0       0.3523602382590346  0.21094817698859003           0.720754529156018  1.0000   
         C         C         1.0       0.342514906406309   0.20153997593872797           0.7535879840951635 1.0000   
         C         C         1.0       0.41061187300216617           0.2537775774163042 0.8071831830962427 1.0000   
         C         C         1.0       0.4228836679663     0.23339386952455884           0.8089948419795348 1.0000   
         C         C         1.0       0.4393981119075527  0.23405623030118972           0.7824237298840101 1.0000   
         C         C         1.0       0.4423599990607442  0.21240478131480242           0.7741749539830297 1.0000   
         C         C         1.0       0.4284360535976517  0.1892446099184189  0.7951992297312741 1.0000   
         C         C         1.0       0.4164657195865034  0.18935306915409214           0.8258323962192708 1.0000   
         C         C         1.0       0.4128293155796784  0.2109065012911009  0.8322110647473401 1.0000   
         C         C         1.0       0.422936619728538   0.30418461987464485           0.7978991454659032 1.0000   
         C         C         1.0       0.4384419905417106  0.33025092105983894           0.7867641276274374 1.0000   
         C         C         1.0       0.46478971148253634           0.3398446070239318 0.769438312234023  1.0000   
         C         C         1.0       0.4770888420605243  0.3235007327448211  0.7716603027329264 1.0000   
         C         C         1.0       0.46095269815749634           0.2976746230206844 0.7873198179724589 1.0000   
         C         C         1.0       0.4328919446544     0.286437670824754   0.7993807437105046 1.0000   
         C         C         1.0       0.47563587154118997           0.3644098114772812 0.7418229405921093 1.0000   
         C         C         1.0       0.40334553983498556           0.3117074738992382 0.6683419219918821 1.0000   
         C         C         1.0       0.40346912838052923           0.3322560221717726 0.6873598616099094 1.0000   
         C         C         1.0       0.4268809334367865  0.34886157769298476           0.70974709719379   1.0000   
         C         C         1.0       0.4498114479830832  0.34513283468155737           0.7141582330112396 1.0000   
         C         C         1.0       0.44864419572634834           0.32441739819024545          0.6933118522943558 1.0000   
         C         C         1.0       0.4248721168694223  0.3057287461377995  0.6738135930308684 1.0000   
         C         C         1.0       0.5068684974011892  0.375160759830373   0.7243730159110384 1.0000   
         C         C         1.0       0.5308032455745755  0.38343262191199173           0.7456795180040066 1.0000   
         C         C         1.0       0.5582288309437161  0.3962336511588679  0.7334809749516149 1.0000   
         C         C         1.0       0.5616805640807555  0.39606870246902154           0.6976128823059629 1.0000   
         C         C         1.0       0.5384353332327442  0.3899202228959134  0.6759418169863596 1.0000   
         C         C         1.0       0.5115906917605948  0.38040295849522565           0.6882375471190341 1.0000   
         C         C         1.0       0.4813978574527624  0.41139584576704696           0.7303422678885464 1.0000   
         C         C         1.0       0.480277729738198   0.43407364171325075           0.7369987983066579 1.0000   
         C         C         1.0       0.4782124103011561  0.440933529404046   0.7711058990083621 1.0000   
         C         C         1.0       0.4763791317559676  0.4229524701474289  0.7975258119744784 1.0000   
         C         C         1.0       0.47933073823739036           0.4004442221388071 0.788831031252016  1.0000   
         C         C         1.0       0.47881728069241697           0.392964510580293  0.7552518276219238 1.0000   
         H         H         1.0       0.35890163887560433           0.2060870807303581 0.8053985566006594 1.0000   
         H         H         1.0       0.41841245938546723           0.26807902967959435          0.7357946065178448 1.0000   
         H         H         1.0       0.38696142666156935           0.24221120423143044          0.6895135404623697 1.0000   
         H         H         1.0       0.32040913571269314           0.18362099681656274          0.7571441875821495 1.0000   
         H         H         1.0       0.447202644699623   0.24995594404613122           0.7627452498186428 1.0000   
         H         H         1.0       0.45347540529384595           0.21315213281548642          0.7502021296086702 1.0000   
         H         H         1.0       0.4069696314818168  0.1712790165597115  0.841592723597479  1.0000   
         H         H         1.0       0.4014484213404147  0.21103468299653327           0.8559703103347321 1.0000   
         H         H         1.0       0.40034084167138617           0.29545202811911253          0.8051851134661371 1.0000   
         H         H         1.0       0.4307149418719913  0.3448933845833525  0.7875221095346996 1.0000   
         H         H         1.0       0.4974548045130925  0.32887295499243124           0.761191264162558  1.0000   
         H         H         1.0       0.4707609351318353  0.28594946822224887           0.7871579551383805 1.0000   
         H         H         1.0       0.3849710819212908  0.3332844671465506  0.6880229858696426 1.0000   
         H         H         1.0       0.4285782085686688  0.36702193275157585           0.7213244391104028 1.0000   
         H         H         1.0       0.46742446558818823           0.32232865220632445          0.6935775351607615 1.0000   
         H         H         1.0       0.4297021600876596  0.29408197792544566           0.6555219416786053 1.0000   
         H         H         1.0       0.5254182053573778  0.3795601136354154  0.772739236473725  1.0000   
         H         H         1.0       0.5760553349262606  0.40516582671257817           0.7514886875770442 1.0000   
         H         H         1.0       0.5390628271103183  0.38822290843319474           0.6467389494285722 1.0000   
         H         H         1.0       0.4925594356077889  0.3751866950163055  0.6736955517396992 1.0000   
         H         H         1.0       0.4829021002264553  0.4073912870560583  0.7020224987465828 1.0000   
         H         H         1.0       0.48085212428272506           0.4473947769042856 0.7167234306921084 1.0000   
         H         H         1.0       0.47318733446810535           0.426064085296022  0.8231295528172369 1.0000   
         H         H         1.0       0.47538194636975734           0.3852979282945911 0.80775780376175   1.0000   
         C         C         1.0       0.23541950582757717           0.13673592739769463          0.04596942073679311          1.0000   
         C         C         1.0       0.2544415823052748  0.1466776660851269  0.07288340147675099          1.0000   
         C         C         1.0       0.2821650766077875  0.1513006526859485  0.06942849977150489          1.0000   
         C         C         1.0       0.2886120436026714  0.1415923239007774  0.040508515237727805         1.0000   
         C         C         1.0       0.267846606443164   0.12894152569745101           0.014747691832375676         1.0000   
         C         C         1.0       0.24206836332751827           0.1270772732332491 0.017751884574930266         1.0000   
         H         H         1.0       0.2316265063330469  0.18538710095742209           0.586330924661036  1.0000   
         H         H         1.0       0.2981741471537375  0.16310563735693265           0.08964354299438315          1.0000   
         H         H         1.0       0.2723729304496634  0.12267268247577216           0.9919073646264619 1.0000   
         H         H         1.0       0.2256968428605916  0.11646834998173076           0.9966134402270018 1.0000   
         C         C         1.0       0.29655413634363315           0.15401654599716788          0.5945648568110117 1.0000   
         C         C         1.0       0.34118176039162434           0.15603131925478683          0.06521925373796833          1.0000   
         C         C         1.0       0.34242853911056503           0.19007722682278438          0.5731942458261866 1.0000   
         C         C         1.0       0.3533314319927676  0.19216901872362874           0.6063178586627699 1.0000   
         C         C         1.0       0.33576938320390526           0.17515940792761417          0.6322428841636558 1.0000   
         C         C         1.0       0.30821071839213154           0.1551548553828921 0.6251609909243862 1.0000   
         C         C         1.0       0.32188495936937134           0.15163145516638704          0.03213963681200238          1.0000   
         C         C         1.0       0.3308082782194931  0.17850648596048482           0.011257587188131746         1.0000   
         C         C         1.0       0.32807040094756756           0.17906865350163972          0.9743933010575306 1.0000   
         C         C         1.0       0.33300681372054586           0.20225446902424074          0.9560477996832148 1.0000   
         C         C         1.0       0.3383845727898594  0.22575371825697205           0.974392926761918  1.0000   
         C         C         1.0       0.3417355321277295  0.2257462694411923  0.009951937532933552         1.0000   
         C         C         1.0       0.3382360567423475  0.20357950901772454           0.027598072076867375         1.0000   
         C         C         1.0       0.3063198196944326  0.09929866768675165           0.014009319933507847         1.0000   
         C         C         1.0       0.3134733972353066  0.08203887034713568           0.999287379244476  1.0000   
         C         C         1.0       0.33898510137395044           0.09242994004757052          0.9815139995738356 1.0000   
         C         C         1.0       0.3585987690399173  0.12080723065691526           0.9812952193096612 1.0000   
         C         C         1.0       0.35133422889965804           0.13835901832599135          0.9950418800180453 1.0000   
         C         C         1.0       0.3255532557577009  0.12822027625113824           0.013404144821739683         1.0000   
         C         C         1.0       0.3481463902804635  0.07425499600229744           0.9597575046263196 1.0000   
         C         C         1.0       0.3874763556093532  0.1130554713735432  0.572509469923075  1.0000   
         C         C         1.0       0.358077450695335   0.09302559241894705           0.5739521225520547 1.0000   
         C         C         1.0       0.34156401218266036           0.0860576377814944 0.545056502232558  1.0000   
         C         C         1.0       0.37229349372642967           0.07610456774120541          0.984816062817659  1.0000   
         C         C         1.0       0.40166388446447093           0.09585056228266785          0.9841577972008814 1.0000   
         C         C         1.0       0.42114819274472287           0.09852871757174851          0.009272226723401777         1.0000   
         C         C         1.0       0.36079742350825084           0.08621114556191141          0.9214167624578046 1.0000   
         C         C         1.0       0.3489639479817343  0.09832615954988183           0.902136561437483  1.0000   
         C         C         1.0       0.34968819810600055           0.09858293812380066          0.8659785855078989 1.0000   
         C         C         1.0       0.3659127518759131  0.09049835611889272           0.8490040974710883 1.0000   
         C         C         1.0       0.3807029274585836  0.08092747154133569           0.866875939279342  1.0000   
         C         C         1.0       0.3784390075152451  0.07929192961807012           0.9031140512001108 1.0000   
         C         C         1.0       0.33191367470508865           0.022788115424487332         0.9483483986793323 1.0000   
         C         C         1.0       0.3136705833951101  0.9959350847136352  0.9365798491874457 1.0000   
         C         C         1.0       0.28674131527331626           0.9885159393080782 0.9245479723804593 1.0000   
         C         C         1.0       0.27883131465622    0.007957901884821705         0.9281069381193395 1.0000   
         C         C         1.0       0.29690480536952824           0.03432633593395531          0.9396804388002021 1.0000   
         C         C         1.0       0.324075134790133   0.041950774638106744         0.948659964894136  1.0000   
         H         H         1.0       0.27266479716273384           0.13802660304528616          0.590084585756656  1.0000   
         H         H         1.0       0.38096344565453155           0.19289473716869934          0.047726406513362685         1.0000   
         H         H         1.0       0.3773655876799194  0.20820138764672153           0.6114780284395605 1.0000   
         H         H         1.0       0.29509281543440186           0.14291758970959303          0.6478384470752077 1.0000   
         H         H         1.0       0.32130248657857496           0.1588646572268893 0.9603608071615353 1.0000   
         H         H         1.0       0.3298517109569685  0.20008990767055507           0.9281890854666255 1.0000   
         H         H         1.0       0.3474035545470811  0.24478186969275081           0.02520448031821587          1.0000   
         H         H         1.0       0.33756178277226295           0.2049499020566362 0.05611340637955231          1.0000   
         H         H         1.0       0.2858800526834748  0.09018657473786064           0.030014581821301123         1.0000   
         H         H         1.0       0.3022955024248348  0.06066019770780526           0.004800251606211781         1.0000   
         H         H         1.0       0.38008846127020285           0.13115703983223623          0.9705169284924199 1.0000   
         H         H         1.0       0.3672750925794748  0.15974918162641452           0.993693261372418  1.0000   
         H         H         1.0       0.35038308188184597           0.080159556525862  0.59744113099287   1.0000   
         H         H         1.0       0.31856125501558064           0.0705606647422927 0.5481053158678103 1.0000   
         H         H         1.0       0.4086342430534943  0.10890364785445793           0.9607770784328971 1.0000   
         H         H         1.0       0.4444719816805616  0.1145491750067053  0.005639264747121953         1.0000   
         H         H         1.0       0.3382043707434776  0.10685764531720068           0.9153507739699289 1.0000   
         H         H         1.0       0.33694120161352603           0.10416473765222348          0.8518247800947093 1.0000   
         H         H         1.0       0.3933410588132254  0.07539413911397137           0.8549849877574172 1.0000   
         H         H         1.0       0.3860477813554431  0.0692314905662186  0.9157515808341579 1.0000   
         H         H         1.0       0.3523681998837537  0.02451297802907315           0.9543504275030074 1.0000   
         H         H         1.0       0.3216736767999047  0.9816023142498597  0.9378348393237115 1.0000   
         H         H         1.0       0.25751920132691797           0.002999915860646185         0.9207204585056569 1.0000   
         H         H         1.0       0.29184493762230623           0.05073581050531557          0.9391381835851229 1.0000   
         C         C         1.0       0.37435347281087794           0.27241558501485086          0.943016517126117  1.0000   
         C         C         1.0       0.34344997566730723           0.2515535367800906 0.9561248613999033 1.0000   
         H         H         1.0       0.39045122595974036           0.27759259335442954          0.9652142762672481 1.0000   
         H         H         1.0       0.37822927891003755           0.29309778755758203          0.9359110601320298 1.0000   
         H         H         1.0       0.3278244562261162  0.24646646207874098           0.9342334810600094 1.0000   
         H         H         1.0       0.33589769752930854           0.26072439490835253          0.9760910509358219 1.0000   
         C         C         1.0       0.3458778176578568  0.17974625931535584           0.6685630208689055 1.0000   
         C         C         1.0       0.3345625340102945  0.19608456350675837           0.6883131863149424 1.0000   
         H         H         1.0       0.3688673697583811  0.188517115372123   0.6684611328155513 1.0000   
         H         H         1.0       0.336283146203202   0.157806860281668   0.6805674102821211 1.0000   
         H         H         1.0       0.31189918105225534           0.18106595779315943          0.6967651171111563 1.0000   
         H         H         1.0       0.33138404649918196           0.21037922850307378          0.6730207910376398 1.0000   
         C         C         1.0       0.4477800923365051  0.1567878655234648  0.8063295229381018 1.0000   
         C         C         1.0       0.42823109753910343           0.16310155697461526          0.7843009407256408 1.0000   
         H         H         1.0       0.43160596492995423           0.13911362112011164          0.8217673783762194 1.0000   
         H         H         1.0       0.46305886994253864           0.17471178490788078          0.8249916730126171 1.0000   
         H         H         1.0       0.4319938110337193  0.16340476046024377           0.7555851238494807 1.0000   
         H         H         1.0       0.40528159685367704           0.14358954915831754          0.7869110416673001 1.0000   
         C         C         1.0       0.40659073778902527           0.11755001935731388          0.6032010708679635 1.0000   
         C         C         1.0       0.4228667794689092  0.10232523459183993           0.5962728891881333 1.0000   
         H         H         1.0       0.42101690707079276           0.1401260108932973 0.6073583592590187 1.0000   
         H         H         1.0       0.3937008385313075  0.11114968603274367           0.6286721622170438 1.0000   
         H         H         1.0       0.4348624822276115  0.1096556201943717  0.5725084564541808 1.0000   
         H         H         1.0       0.4061324796745928  0.0815730432191971  0.5896971443531853 1.0000   
         C         C         1.0       0.6447186954375782  0.06324615452074203           0.6025957814350078 1.0000   
         C         C         1.0       0.6292928989902853  0.06042800812639659           0.6382468495143292 1.0000   
         H         H         1.0       0.6636977100491731  0.08562237106914261           0.5981195860866082 1.0000   
         H         H         1.0       0.65779082674355    0.05314045178926099           0.6049751082148528 1.0000   
         H         H         1.0       0.6426018387065222  0.059466618860669396         0.6601459809908783 1.0000   
         H         H         1.0       0.6084383346042914  0.0385451578593885  0.6389246360773762 1.0000   
         C         C         1.0       0.658308389372159   0.16677472472329183           0.8473534058803175 1.0000   
         C         C         1.0       0.6766174399820806  0.15916738334549071           0.8696828701144947 1.0000   
         H         H         1.0       0.6376971759043562  0.16067631314368355           0.8620871766342973 1.0000   
         H         H         1.0       0.6703819156739896  0.19028139660493543           0.8492995525837274 1.0000   
         H         H         1.0       0.6903724114630981  0.17843602023979632           0.8875018021169405 1.0000   
         H         H         1.0       0.6926187930546184  0.15720525096591684           0.8533008177149571 1.0000   
         C         C         1.0       0.2597182878208789  0.9336253639555555  0.9300032813599873 1.0000   
         C         C         1.0       0.26233148653265825           0.9584326722979342 0.9117296826829863 1.0000   
         H         H         1.0       0.2811061409607093  0.9356795253756957  0.9343107821915247 1.0000   
         H         H         1.0       0.24254166902449664           0.9781965772221999 0.543582330012165  1.0000   
         H         H         1.0       0.24113852002636918           0.9572048837414355 0.9094316621507574 1.0000   
         H         H         1.0       0.266677582790409   0.9560581563799293  0.8845744945226895 1.0000   
         C         C         1.0       0.4657771474054762  0.03902641078834379           0.9160296994814542 1.0000   
         C         C         1.0       0.48989313947332325           0.05085264099645248          0.8901590919809992 1.0000   
         H         H         1.0       0.47052869058619595           0.05696249925137575          0.9331332137469167 1.0000   
         H         H         1.0       0.4679198203630963  0.025547807849970017         0.9318543509145784 1.0000   
         H         H         1.0       0.48202663516422645           0.04001656000097564          0.8640451030538188 1.0000   
         H         H         1.0       0.4992005161396758  0.07372887120676919           0.886425947831926  1.0000   
         C         C         1.0       0.4368047423775793  0.9773832899219107  0.7262321643220887 1.0000   
         C         C         1.0       0.47161699279878855           0.9960380826296428 0.734450786136246  1.0000   
         H         H         1.0       0.4312771239337945  0.9836557720788414  0.7026991504848927 1.0000   
         H         H         1.0       0.43045131647393864           0.9555440868514076 0.721277447558733  1.0000   
         H         H         1.0       0.4854748060631001  0.9913318808722804  0.7175469876808591 1.0000   
         H         H         1.0       0.47643143688219763           0.991645238766153  0.7603356626041209 1.0000   
         C         C         1.0       0.3611295823649484  0.0851107905003844  0.8091782755930337 1.0000   
         C         C         1.0       0.3320472567037064  0.060787849335662836         0.7995430671938349 1.0000   
         H         H         1.0       0.3635809355420034  0.10384032391374153           0.7978709611476588 1.0000   
         H         H         1.0       0.3785992908367019  0.08368574026320147           0.7985910149596682 1.0000   
         H         H         1.0       0.31686283001442644           0.06256762917013581          0.8141107422041695 1.0000   
         H         H         1.0       0.3237105831342897  0.05966410284182344           0.7735498556206479 1.0000   
         C         C         1.0       0.1692994034921336  0.8339760621333762  0.7558907987377487 1.0000   
         C         C         1.0       0.1924021546709087  0.85712526327674    0.7287850258555741 1.0000   
         H         H         1.0       0.15694128187196668           0.8122032382732544 0.7447498966224563 1.0000   
         H         H         1.0       0.15322017657208095           0.8394419357526107 0.7623013071615958 1.0000   
         H         H         1.0       0.20770174698761443           0.8515333723180316 0.7221452600016799 1.0000   
         H         H         1.0       0.20358491001704643           0.8786216923429284 0.7391139188033353 1.0000   
         C         C         1.0       0.234603666075314   0.8067731477044846  0.992955514558435  1.0000   
         C         C         1.0       0.20892677746639976           0.7940475826791349 0.019106661979882755         1.0000   
         H         H         1.0       0.2377454529527446  0.7902195619645302  0.9848448343405837 1.0000   
         H         H         1.0       0.2568072352352991  0.823553685705699   0.00336940967382926          1.0000   
         H         H         1.0       0.18971219898376804           0.7754944761884018 0.007756231518252887         1.0000   
         H         H         1.0       0.21734645844228276           0.7859499223601604 0.03716572602300894          1.0000   
         C         C         1.0       0.217291374406184   0.16667307109058935           0.023234530217586702         1.0000   
         C         C         1.0       0.2104150449949412  0.14053158036326677           0.04622413100996048          1.0000   
         H         H         1.0       0.1972226274431486  0.1672666312702027  0.020255724180659795         1.0000   
         H         H         1.0       0.2247280881351799  0.165322963297478   0.9974422454178794 1.0000   
         H         H         1.0       0.19063930039877744           0.12081853256329235          0.04016716323244873          1.0000   
         H         H         1.0       0.20683898249267585           0.1455110202840183 0.07266624450944104          1.0000   
         C         C         1.0       0.351994380378835   0.27014087530655423           0.646230777930231  1.0000   
         C         C         1.0       0.3834180904192169  0.29726495246339735           0.6371775310896141 1.0000   
         H         H         1.0       0.35420762388098503           0.2528336533802945 0.6387653916168782 1.0000   
         H         H         1.0       0.3463355274360493  0.2674072665769596  0.6732117924118295 1.0000   
         H         H         1.0       0.3811249704936156  0.31351411482157143           0.6248175604566023 1.0000   
         H         H         1.0       0.3946045265434592  0.29086791366340914           0.6159825556947885 1.0000   
         C         C         1.0       0.2845096789010003  0.36571656753042    0.7946997833494338 1.0000   
         C         C         1.0       0.2634200596242512  0.34251531718967987           0.769321345693873  1.0000   
         H         H         1.0       0.30930433024680226           0.37712505297759313          0.7868011850199627 1.0000   
         H         H         1.0       0.28192282580379335           0.35565649651907627          0.8191639490676582 1.0000   
         H         H         1.0       0.24161242337850045           0.3296583691685849 0.7805774088344016 1.0000   
         H         H         1.0       0.2693233656880038  0.3270779011294634  0.7642059791226371 1.0000   
         C         C         1.0       0.3026692963775375  0.4428963919567001  0.02191236901479221          1.0000   
         C         C         1.0       0.27642402340625843           0.4274618485199978 0.9983726787898821 1.0000   
         H         H         1.0       0.3075830616630482  0.46303761521533987           0.029663098276716093         1.0000   
         H         H         1.0       0.31970831352389034           0.4448282045389546 0.005754737588572256         1.0000   
         H         H         1.0       0.2725069872600083  0.4055649308801521  0.9945063418426405 1.0000   
         H         H         1.0       0.2579451024749239  0.424806342089444   0.01260555610220937          1.0000   
         C         C         1.0       0.1247396781967342  0.34452110961179977           0.5916485447179222 1.0000   
         C         C         1.0       0.15119771731650622           0.3708632139390178 0.5757766764164005 1.0000   
         H         H         1.0       0.12089288705256579           0.34714958020757397          0.6179076394182739 1.0000   
         H         H         1.0       0.13104245423041558           0.3287588645009953 0.594500952036251  1.0000   
         H         H         1.0       0.15309474615930038           0.390811061405704  0.5840187894521858 1.0000   
         H         H         1.0       0.14925295488559615           0.36930555517930974          0.5473710304808975 1.0000   
         C         C         1.0       0.05772999795001449           0.2987964136105989 0.8288713894449814 1.0000   
         C         C         1.0       0.09006234108682942           0.3167475076081965 0.8227060066619356 1.0000   
         H         H         1.0       0.05439606133322772           0.2793639956396227 0.8207031278038749 1.0000   
         H         H         1.0       0.04327823551833083           0.3022663950966267 0.8115245116658826 1.0000   
         H         H         1.0       0.09363962665939322           0.3077984893424982 0.7984444829319741 1.0000   
         H         H         1.0       0.09942159877298734           0.30991700641867204          0.8436951166190588 1.0000   
         C         C         1.0       0.7097726840149104  0.25632592333095305           0.66137884640835   1.0000   
         C         C         1.0       0.7358049019250784  0.2584232214842427  0.6827558302164985 1.0000   
         H         H         1.0       0.7116621175936737  0.2540052647237063  0.6319495652060003 1.0000   
         H         H         1.0       0.7112983720128295  0.2771391618402164  0.6640977296481709 1.0000   
         H         H         1.0       0.7365586804818098  0.26800079653805053           0.7065175154404784 1.0000   
         H         H         1.0       0.754581187198165   0.2729660842532585  0.6657814154362761 1.0000   
         C         C         1.0       0.6444802020883125  0.06640020802864134           0.7790949526103144 1.0000   
         C         C         1.0       0.6433114290518155  0.03935201641051478           0.7638417104156113 1.0000   
         H         H         1.0       0.6506076875384966  0.06906546014444634           0.8064783306585849 1.0000   
         H         H         1.0       0.6226653503958585  0.06514176741503246           0.7765804320793414 1.0000   
         H         H         1.0       0.6267316633937379  0.031076846347214193         0.7433893458090599 1.0000   
         H         H         1.0       0.6644613987476035  0.04606347964286685           0.7528607064959654 1.0000   
         C         C         1.0       0.8237823196215521  0.1569058984758735  0.955838345895569  1.0000   
         C         C         1.0       0.8263428269430249  0.18090164495533925           0.9330784853603761 1.0000   
         H         H         1.0       0.8069016353878558  0.13572579241124072           0.943081366780965  1.0000   
         H         H         1.0       0.8099538923704764  0.1556345802023082  0.9788029253580544 1.0000   
         H         H         1.0       0.8047617560157472  0.17702859254159709           0.9298031631419182 1.0000   
         H         H         1.0       0.8386158833506819  0.2004359634761393  0.9480924819762142 1.0000   
         C         C         1.0       0.9175853052572719  0.14522960130698234           0.6897267325479916 1.0000   
         C         C         1.0       0.8902246365711961  0.12605866911566616           0.7104629011918822 1.0000   
         H         H         1.0       0.9292853998520583  0.133910759012996   0.6881121961654428 1.0000   
         H         H         1.0       0.9333435330321191  0.16358342789720112           0.7036133237247156 1.0000   
         H         H         1.0       0.8920989467032971  0.11209973897216309           0.7273250985036023 1.0000   
         H         H         1.0       0.8710666050457037  0.11322093178012455           0.6940395949222512 1.0000   
         C         C         1.0       0.9339801510468978  0.7005938752713264  0.586319485057624  1.0000   
         C         C         1.0       0.9378024706097142  0.6756031163383951  0.5852347114479173 1.0000   
         H         H         1.0       0.9142671550312135  0.6933253432164325  0.5716554189870583 1.0000   
         H         H         1.0       0.9294696323835739  0.7039239812684011  0.613601653855474  1.0000   
         H         H         1.0       0.9584950236645122  0.6813496288975895  0.5729453571744372 1.0000   
         H         H         1.0       0.921520708518746   0.660050505906748   0.5676923695878257 1.0000   
         C         C         1.0       0.9957683987790081  0.8988304263680027  0.9801212351031774 1.0000   
         C         C         1.0       0.02641181902209566           0.9113986683602688 0.9962972836729097 1.0000   
         H         H         1.0       0.9908069078530792  0.9139591045865834  0.9896730273078713 1.0000   
         H         H         1.0       0.9994669847415965  0.902018960005092   0.9512859880639393 1.0000   
         H         H         1.0       0.028426138393570888          0.9235971938985178 0.019836673596071774         1.0000   
         H         H         1.0       0.04235341922964486           0.9265458480412607 0.979145728905004  1.0000   
         C         C         1.0       0.9108147254493519  0.7008898950880901  0.9386261501569231 1.0000   
         C         C         1.0       0.8979949313833127  0.7105491127404002  0.9110120966511842 1.0000   
         H         H         1.0       0.9291897345679452  0.70071411264597    0.9264980215293445 1.0000   
         H         H         1.0       0.8941169245873496  0.678832971893139   0.9479270294501211 1.0000   
         H         H         1.0       0.9082577845539536  0.7340038193190638  0.9124774949226859 1.0000   
         H         H         1.0       0.8755256980387082  0.703418580921139   0.9167831238717655 1.0000   
         C         C         1.0       0.9329766079769685  0.78502270920088    0.6502563835739913 1.0000   
         C         C         1.0       0.9557436138224549  0.7819277509605732  0.6693238619477131 1.0000   
         H         H         1.0       0.9368771339467517  0.8074569927022749  0.6517608167389792 1.0000   
         H         H         1.0       0.9122213518346227  0.771463031323883   0.6666895801225783 1.0000   
         H         H         1.0       0.9705589675529002  0.8000787445698385  0.6852163433980939 1.0000   
         H         H         1.0       0.969929884964823   0.7797234664647572  0.6504920025355402 1.0000   
         C         C         1.0       0.2779925593935982  0.7676437240165032  0.7987334075456985 1.0000   
         C         C         1.0       0.30524834377459137           0.7914849943452723 0.8177050525192783 1.0000   
         H         H         1.0       0.2797335819211054  0.7496181754282839  0.7969265724929453 1.0000   
         H         H         1.0       0.28054277603442934           0.7766772615225512 0.7733018783278552 1.0000   
         H         H         1.0       0.3221863496090209  0.7910937321109035  0.8028481371142014 1.0000   
         H         H         1.0       0.30698950619286286           0.7833335718828419 0.84446767533567   1.0000   
         C         C         1.0       0.14536044155575914           0.8091077663351772 0.9126974475597532 1.0000   
         C         C         1.0       0.11448110219205979           0.8014713101373803 0.9039887866536794 1.0000   
         H         H         1.0       0.1613189760324291  0.8313743234783146  0.9043530349431796 1.0000   
         H         H         1.0       0.14694250419248187           0.8077802194592205 0.9409385077634257 1.0000   
         H         H         1.0       0.09973415215393114           0.7786615632388562 0.9055625148555303 1.0000   
         H         H         1.0       0.11319409813358827           0.809167598529916  0.8786902024526986 1.0000   
         C         C         1.0       0.12379531165591058           0.5280373686313711 0.8898173126591106 1.0000   
         C         C         1.0       0.10127309671713942           0.499366806927925  0.8741927276991732 1.0000   
         H         H         1.0       0.13076324620102311           0.5247132558828936 0.9146091206449096 1.0000   
         H         H         1.0       0.14247717614613556           0.5406844369353224 0.8738235286739103 1.0000   
         H         H         1.0       0.0852353123858307  0.49848273085267936           0.8558459548545982 1.0000   
         H         H         1.0       0.08662997781125784           0.4862327199518082 0.8931836378765615 1.0000   
         C         C         1.0       0.042952385274672045          0.6225232461176909 0.7543659115467678 1.0000   
         C         C         1.0       0.0707335534357977  0.6524903675894744  0.7433363822821425 1.0000   
         H         H         1.0       0.04133004923440731           0.6193028128975948 0.783072515381189  1.0000   
         H         H         1.0       0.0459675770574345  0.6050347042334647  0.7454481424750883 1.0000   
         H         H         1.0       0.06348353078196835           0.6654267954137921 0.7324647994257107 1.0000   
         H         H         1.0       0.0840492574004542  0.6499701491738958  0.7219354464625455 1.0000   
         C         C         1.0       0.9550325572587024  0.3287059285001532  0.7604363529859319 1.0000   
         C         C         1.0       0.9566575119214403  0.30417316181850546           0.7434986757012602 1.0000   
         H         H         1.0       0.9662212863872435  0.33499638492924033           0.7850551878669513 1.0000   
         H         H         1.0       0.9327701079714383  0.3203046637173557  0.7684627453451621 1.0000   
         H         H         1.0       0.9777020217013659  0.3072824028058468  0.7539771623617042 1.0000   
         H         H         1.0       0.9566846320770849  0.3063236682277419  0.7145340811550287 1.0000   
         C         C         1.0       0.9515100739987504  0.3638686839726588  0.5471179593063532 1.0000   
         C         C         1.0       0.9366376159377989  0.3312880086266043  0.5477183570094623 1.0000   
         H         H         1.0       0.9338495208100485  0.365371486758118   0.5404630209039579 1.0000   
         H         H         1.0       0.02639400449581064           0.3804880754574955 0.030583320635303446         1.0000   
         H         H         1.0       0.9273705037228452  0.3248903970625723  0.5737941005853099 1.0000   
         H         H         1.0       0.9653523523201735  0.3434162824790406  0.042483853365009816         1.0000   
         C         C         1.0       0.8558233122127575  0.4699834019747956  0.6722652146450526 1.0000   
         C         C         1.0       0.8531511656652411  0.4912472850269801  0.6961324982353028 1.0000   
         H         H         1.0       0.8516848291801046  0.4762632482351979  0.6470846721886612 1.0000   
         H         H         1.0       0.8364227903835579  0.44811056493662027           0.6733421937587661 1.0000   
         H         H         1.0       0.8339716233723528  0.4910953491861104  0.6864923261828628 1.0000   
         H         H         1.0       0.8461602759864864  0.48181334700948963           0.7216267181057031 1.0000   
         C         C         1.0       0.15349084835225466           0.49768352140065575          0.6770541976451906 1.0000   
         C         C         1.0       0.13513665507096873           0.511012245701779  0.678144624224753  1.0000   
         H         H         1.0       0.17564343149153247           0.5142418628958024 0.671279802913086  1.0000   
         H         H         1.0       0.14773040058942086           0.48221702245402936          0.6563078405618578 1.0000   
         H         H         1.0       0.14310640361968052           0.5258028180166766 0.6552507578509235 1.0000   
         H         H         1.0       0.14400979907718436           0.5261404391868494 0.701676019476477  1.0000   
         C         C         1.0       0.04771857630555359           0.6113400313617556 0.5988720429051707 1.0000   
         C         C         1.0       0.10181300939799526           0.6349422491006285 0.07976004991965024          1.0000   
         H         H         1.0       0.03709817008236666           0.6226789140117635 0.5923394556506603 1.0000   
         H         H         1.0       0.0689310693547531  0.6264469379596281  0.6079506897011441 1.0000   
         H         H         1.0       0.10964497067175194           0.6219936876959037 0.09283908791315687          1.0000   
         H         H         1.0       0.12126656504874116           0.6560156790434883 0.08213781150796184          1.0000   
         C         C         1.0       0.9720093302187691  0.5341441807626005  0.8362389797912322 1.0000   
         C         C         1.0       0.9777884317327759  0.5602837718534203  0.8585156222272016 1.0000   
         H         H         1.0       0.9469780861716249  0.515268754804728   0.8347950679754095 1.0000   
         H         H         1.0       0.9810556227392568  0.5228386076672364  0.8476057573546748 1.0000   
         H         H         1.0       0.9754780161962808  0.5748768602725511  0.8422029553517998 1.0000   
         H         H         1.0       0.9593412781950363  0.5519280977573888  0.8770965620750077 1.0000   
         C         C         1.0       0.9332343169317676  0.06114934403614644           0.9961453867295792 1.0000   
         C         C         1.0       0.9513571841507339  0.08404341389401994           0.9664229458300674 1.0000   
         H         H         1.0       0.9489532959366489  0.06345477726035506           0.01598956064956103          1.0000   
         H         H         1.0       0.924503347841338   0.039937284966400484         0.9857775715194892 1.0000   
         H         H         1.0       0.9711423929075205  0.08481331796336875           0.9619665930675824 1.0000   
         H         H         1.0       0.9379290662478869  0.07523624739683307           0.9425113510693617 1.0000   
         C         C         1.0       0.816035377040002   0.1361883645380102  0.596908372241436  1.0000   
         C         C         1.0       0.7839360431106615  0.12386502476188872           0.5971223681364098 1.0000   
         H         H         1.0       0.822998054478295   0.1398519498742623  0.6236494352980244 1.0000   
         H         H         1.0       0.8319317873972466  0.15726387814013723           0.5850110420088801 1.0000   
         H         H         1.0       0.7724979141977178  0.10112133124755608           0.6001817996577465 1.0000   
         H         H         1.0       0.7744295087305113  0.12642606126010777           0.5731488483802135 1.0000   
         C         C         1.0       0.754370669221758   0.8428444712883572  0.08317291573900198          1.0000   
         C         C         1.0       0.7613433422974071  0.8289856759711615  0.5580956895931377 1.0000   
         H         H         1.0       0.733976854840619   0.8300587852354374  0.06943197846713423          1.0000   
         H         H         1.0       0.7673938960752134  0.848721699890953   0.06040743441545082          1.0000   
         H         H         1.0       0.7433472925375311  0.8170479535071673  0.5769684135271311 1.0000   
         H         H         1.0       0.7801786087768391  0.842503124265874   0.5778747406241527 1.0000   
         C         C         1.0       0.7003724549926097  0.95521400878434    0.9513210764487002 1.0000   
         C         C         1.0       0.7284592351019696  0.9824720507931944  0.9471305680518719 1.0000   
         H         H         1.0       0.6981871192176596  0.9514956672785376  0.9809197782804806 1.0000   
         H         H         1.0       0.7013476589438152  0.9381693499353267  0.9407210827597006 1.0000   
         H         H         1.0       0.7403832324699947  0.9800247110898619  0.9261859902839803 1.0000   
         H         H         1.0       0.7263556332508807  0.9990811029461367  0.9346781071467299 1.0000   
         C         C         1.0       0.5137747387205414  0.8419488309057898  0.8662220503021806 1.0000   
         C         C         1.0       0.5194314276373883  0.8218010764772032  0.8447823729066725 1.0000   
         H         H         1.0       0.49428560322406273           0.8440562896238231 0.8606164800130427 1.0000   
         H         H         1.0       0.5087456087209193  0.8330694254597392  0.8933404552568889 1.0000   
         H         H         1.0       0.5168929526247951  0.8240217541246029  0.8182057571364784 1.0000   
         H         H         1.0       0.5019641337822794  0.8008964014789633  0.8507437080639667 1.0000   
         C         C         1.0       0.7995927866165727  0.8408439427147959  0.9095964776824521 1.0000   
         C         C         1.0       0.7789841481846047  0.8498096260276542  0.9221503078838685 1.0000   
         H         H         1.0       0.8210914509393454  0.8601257667802734  0.9067749639329898 1.0000   
         H         H         1.0       0.793346874127153   0.8319472582888993  0.8842982493711979 1.0000   
         H         H         1.0       0.7797000060896567  0.8521709569220742  0.9501695843071102 1.0000   
         H         H         1.0       0.78642465129906    0.8707500324492203  0.9129616791023926 1.0000   
         C         C         1.0       0.718923248384581   0.9339860170015145  0.7793632635260882 1.0000   
         C         C         1.0       0.7093700666637539  0.9092511938863481  0.7524917516522502 1.0000   
         H         H         1.0       0.7164880636725588  0.9511301088621009  0.7674552099067055 1.0000   
         H         H         1.0       0.7425265890473507  0.9454751541359141  0.7847456334414885 1.0000   
         H         H         1.0       0.6856049592654703  0.8963147443074237  0.7525053226840337 1.0000   
         H         H         1.0       0.717347710888319   0.8951017476820678  0.7612483108975385 1.0000   
         C         C         1.0       0.64659334380496    0.9128856254034459  0.04437538115702533          1.0000   
         C         C         1.0       0.6332030448379065  0.8841316691353875  0.026854001747150358         1.0000   
         H         H         1.0       0.6526601992496931  0.9281215924323042  0.024721487317361124         1.0000   
         H         H         1.0       0.6297598721929962  0.912511406596665   0.0599031747144354 1.0000   
         H         H         1.0       0.6108523035604837  0.8728048439709911  0.029485242851526205         1.0000   
         H         H         1.0       0.6396422406730015  0.8724502916169458  0.04277953081923491          1.0000   
         C         C         1.0       0.3538984141230268  0.5683825702313474  0.8428553287286082 1.0000   
         C         C         1.0       0.37248668110982436           0.5705899096818309 0.875314358716848  1.0000   
         H         H         1.0       0.36757448439442103           0.5727669020358971 0.8198318470561745 1.0000   
         H         H         1.0       0.3481615213601204  0.5839177740685557  0.8456031679505536 1.0000   
         H         H         1.0       0.36219808013270777           0.574364564910734  0.8983718747517153 1.0000   
         H         H         1.0       0.3936533917791897  0.5920465618259694  0.8735113065979441 1.0000   
         C         C         1.0       0.2974545244632566  0.37410641496277036           0.9421731629778229 1.0000   
         C         C         1.0       0.3073210837467783  0.3532130503236937  0.9373423329067068 1.0000   
         H         H         1.0       0.2934934552987093  0.3743389613446034  0.9695878736628394 1.0000   
         H         H         1.0       0.2753637817911156  0.3669923026116286  0.9297903864542426 1.0000   
         H         H         1.0       0.33056542036970893           0.3639188385214374 0.9284672599626403 1.0000   
         H         H         1.0       0.2953766242978538  0.3381166089265588  0.9148899014619933 1.0000   
         C         C         1.0       0.5925945945474268  0.6350107286350086  0.9083712620907275 1.0000   
         C         C         1.0       0.6003271590317988  0.657418049360808   0.9375505251608323 1.0000   
         H         H         1.0       0.5817904359409128  0.6402249237252314  0.8882552509887317 1.0000   
         H         H         1.0       0.613347086800135   0.6395893066708027  0.8955758216078195 1.0000   
         H         H         1.0       0.6132490389841727  0.65664143838903    0.9583013816450823 1.0000   
         H         H         1.0       0.5801624972182399  0.6510757222200074  0.9481529912914314 1.0000   
         C         C         1.0       0.4752484535150095  0.46401208599306226           0.7811056131222854 1.0000   
         C         C         1.0       0.44359432686943173           0.45646697829051525          0.7727523263594842 1.0000   
         H         H         1.0       0.49039223363147194           0.4820102940256303 0.7644617475291329 1.0000   
         H         H         1.0       0.48188216505507153           0.47205070947115024          0.8066175818241901 1.0000   
         H         H         1.0       0.4282981695618974  0.43429914984834633           0.7611841416655369 1.0000   
         H         H         1.0       0.4445657587540091  0.4705262904539188  0.7526237793255364 1.0000   
         C         C         1.0       0.7796611519648287  0.6442111306864835  0.691486552941637  1.0000   
         C         C         1.0       0.7811234332618241  0.6514816437878755  0.653673620381821  1.0000   
         H         H         1.0       0.7630257360316606  0.6224050938961133  0.6911735523878977 1.0000   
         H         H         1.0       0.7680037612676768  0.6509495767643179  0.7076349878218907 1.0000   
         H         H         1.0       0.7871301466291953  0.638980710645994   0.6382517277006912 1.0000   
         H         H         1.0       0.7976465635460136  0.6736602031320752  0.6494099535628424 1.0000   
         C         C         1.0       0.6730982492177593  0.6328777288844618  0.4754906624451833 1.0000   
         C         C         1.0       0.7046185745250237  0.6396051253063436  0.4704957229098962 1.0000   
         H         H         1.0       0.707618245906475   0.6425854498491198  0.003774054741555455         1.0000   
         H         H         1.0       0.708237230879656   0.6111841849382522  0.004785482666881613         1.0000   
         H         H         1.0       0.7585735303204341  0.6444858822087292  0.9959688725813196 1.0000   
         H         H         1.0       0.7115469439179002  0.6296591001824607  0.4892382360517912 1.0000   
         C         C         1.0       0.6025168483711668  0.4189900002746842  0.6492506361780943 1.0000   
         C         C         1.0       0.5906750058717645  0.4008040517895911  0.6825084365076725 1.0000   
         H         H         1.0       0.6260625986678728  0.42573322970665123           0.6480900517805936 1.0000   
         H         H         1.0       0.5915253233701633  0.40605351691122016           0.6261379195751212 1.0000   
         H         H         1.0       0.6103578751504918  0.4109446342469558  0.7028848068975845 1.0000   
         H         H         1.0       0.5872179281539809  0.38048268503527805           0.6777804572914365 1.0000   
         C         C         1.0       0.6506520137768698  0.7150280263703589  0.7243667509396698 1.0000   
         C         C         1.0       0.6256763056343512  0.6824536339008024  0.7183282462357701 1.0000   
         H         H         1.0       0.6709787974795238  0.716175236185362   0.7215547551896474 1.0000   
         H         H         1.0       0.6471282508390737  0.7283885064561049  0.7063746336005368 1.0000   
         H         H         1.0       0.6037396305370364  0.6784063789305198  0.7134754970171575 1.0000   
         H         H         1.0       0.6204596308381779  0.6705302919466085  0.7437305522560816 1.0000   
         C         C         1.0       0.5239527941148361  0.49635792444983523           0.0922939840060244 1.0000   
         C         C         1.0       0.46127408257443975           0.4721034256785251 0.6229513523193795 1.0000   
         H         H         1.0       0.5247962315764195  0.4774919794708125  0.09088687273073548          1.0000   
         H         H         1.0       0.5453825529493057  0.513878506658688   0.09899929423344811          1.0000   
         H         H         1.0       0.45273446828089126           0.4532493329477357 0.6067604704955075 1.0000   
         H         H         1.0       0.4452317149662839  0.4659473440452897  0.6426806960063348 1.0000   
         C         C         1.0       0.5768601756606782  0.4861933583811626  0.8287063717343399 1.0000   
         C         C         1.0       0.5516042388243169  0.46300130991560995           0.8507151472539177 1.0000   
         H         H         1.0       0.5927055146093246  0.47947673885294007           0.8264840147042121 1.0000   
         H         H         1.0       0.5887352415258151  0.5070944440262241  0.8423470937855377 1.0000   
         H         H         1.0       0.5612265764946314  0.4526164169450176  0.8636661898718331 1.0000   
         H         H         1.0       0.5338595196130003  0.4468377845980849  0.834989926361469  1.0000

