data_0
_chemical_formula_structural 
                                        C6H4C38H24C6H4C38H24C6H4C38H24C6H4C38H24C6H4C38H24C6H4C38H24C6H4C38H24C6H4C38H24C6H4C38H24C6H4C38H24C6H4C38H24C6H4C38H24C6H4C38H24C6H4C38H24C6H4C38H24C6H4C38H24C6H4C38H24C6H4C38H24C6H4C38H24C6H4C38H24C6H4C38H24C6H4C38H24C6H4C38H24C6H4C38H24C6H4C38H24C6H4C38H24C6H4C38H24C6H4C38H24C6H4C38H24C6H4C38H24C6H4C38H24C6H4C38H24C6H4C38H24C6H4C38H24C6H4C38H24C6H4C38H24C2H4C2H4C2H4C2H4C2H4C2H4C2H4C2H4C2H4C2H4C2H4C2H4C2H4C2H4C2H4C2H4C2H4C2H4C2H4C2H4C2H4C2H4C2H4C2H4C2H4C2H4C2H4C2H4C2H4C2H4C2H4C2H4C2H4C2H4C2H4C2H4C2H4C2H4C2H4C2H4C2H4C2H4C2H4C2H4C2H4C2H4C2H4C2H4C2H4C2H4C2H4C2H4C2H4C2H4C2H4C2H4C2H4C2H4C2H4C2H4C2H4C2H4C2H4C2H4C2H4C2H4C2H4C2H4C2H4C2H4C2H4C2H4C2H4C2H4C2H4C2H4C2H4C2H4C2H4C2H4C2H4C2H4C2H4C2H4C2H4C2H4C2H4C2H4C2H4C2H4C2H4C2H4C2H4C2H4C2H4C2H4C2H4C2H4C2H4C2H4C2H4C2H4C2H4C2H4C2H4C2H4C2H4C2H4
_chemical_formula_sum                   'C1800 H1440'
_cell_length_a                          39.724044021014066
_cell_length_b                          41.777452142958005
_cell_length_c                          39.311650328346104
_cell_angle_alpha                       90.63348317738985
_cell_angle_beta                        89.14359463476542
_cell_angle_gamma                       123.87075381182845
_space_group_name_H-M_alt               'P 1'
_space_group_IT_number                  1
loop_
  _space_group_symop_operation_xyz
         'x, y, z' 
loop_
  _atom_site_type_symbol
  _atom_site_label
  _atom_site_symmetry_multiplicity
  _atom_site_fract_x
  _atom_site_fract_y
  _atom_site_fract_z
  _atom_site_occupancy
         C         C         1.0       0.9311353543508609  0.50435466551802    0.453199133720346  1.0000   
         C         C         1.0       0.9219878918181288  0.5019976355541773  0.4199649390875002 1.0000   
         C         C         1.0       0.9250704501835414  0.4780378216641687  0.3988898133321891 1.0000   
         C         C         1.0       0.9405799220462999  0.4572411898850547  0.41055936439660595          1.0000   
         C         C         1.0       0.9553562068976321  0.4645487228525969  0.4427261848765942 1.0000   
         C         C         1.0       0.9473137411993893  0.48657390260844974           0.46410210913551164          1.0000   
         H         H         1.0       0.9071297787186747  0.5146176083407538  0.4094141222435471 1.0000   
         H         H         1.0       0.9118025079892235  0.4731368550807459  0.3756294471081309 1.0000   
         H         H         1.0       0.9716982204111271  0.4533527715908381  0.4523583019138617 1.0000   
         H         H         1.0       0.9571831778663807  0.4861814230639408  0.4889738226612437 1.0000   
         C         C         1.0       0.9735482295595017  0.4494440894786478  0.3268385584842473 1.0000   
         C         C         1.0       0.9766640838743755  0.44815266812864607           0.3620042113972818 1.0000   
         C         C         1.0       0.015123631555555406          0.4668939182478134 0.37609600613384747          1.0000   
         C         C         1.0       0.04986473941613867           0.4890474477690382 0.3578297819716692 1.0000   
         C         C         1.0       0.047516105166302   0.4929736968514102  0.3235598853764442 1.0000   
         C         C         1.0       0.00831336378300973           0.4701560546719568 0.3058202464571293 1.0000   
         C         C         1.0       0.9393348149095831  0.42430148672200124           0.38731367289491125          1.0000   
         C         C         1.0       0.8974907556171828  0.39594733633238405           0.36777282353899476          1.0000   
         C         C         1.0       0.8932152654349379  0.3683960886907103  0.3442074041988739 1.0000   
         C         C         1.0       0.8562313131174975  0.3418389953211778  0.33070846528082026          1.0000   
         C         C         1.0       0.8226994771961504  0.34035145334639544           0.33912098983110894          1.0000   
         C         C         1.0       0.8252512265591131  0.3659041121801944  0.36403892411190175          1.0000   
         C         C         1.0       0.8612781569621222  0.3921158538424376  0.3779734647800898 1.0000   
         C         C         1.0       0.912509254404388   0.37322125889024454           0.4329882675908766 1.0000   
         C         C         1.0       0.9034183723381809  0.33850798424999545           0.44169602181031775          1.0000   
         C         C         1.0       0.9217617499714591  0.3208119707531595  0.42853319351230806          1.0000   
         C         C         1.0       0.9555105809164262  0.34280944271736796           0.40857925095257247          1.0000   
         C         C         1.0       0.9643048337319325  0.3779236330122539  0.3956401476343039 1.0000   
         C         C         1.0       0.9436797752635365  0.39340558865390474           0.4091869702644902 1.0000   
         C         C         1.0       0.897323812537962   0.2744792230870826  0.43338345432241665          1.0000   
         C         C         1.0       0.9383387389601161  0.2700274448232484  0.5356103492611222 1.0000   
         C         C         1.0       0.9080571375933658  0.2759630314953103  0.5310772538307227 1.0000   
         C         C         1.0       0.8949300036442633  0.2770153593166337  0.4995341043739631 1.0000   
         C         C         1.0       0.9133806672613006  0.27383721578869913           0.4712520792336901 1.0000   
         C         C         1.0       0.9444425594979121  0.2689336876873232  0.47600757063299753          1.0000   
         C         C         1.0       0.9559741113709668  0.2664268138716349  0.5072996898346233 1.0000   
         C         C         1.0       0.9054046257813568  0.24950734879886893           0.4075713577907128 1.0000   
         C         C         1.0       0.9227982719127111  0.26302978075855793           0.3746441342117341 1.0000   
         C         C         1.0       0.9254569117296464  0.23835915764731413           0.35233791644539336          1.0000   
         C         C         1.0       0.908640096427056   0.20086127408774118           0.3605509791347617 1.0000   
         C         C         1.0       0.8925028336554395  0.18834810560488932           0.3926181712268664 1.0000   
         C         C         1.0       0.892107970221526   0.21287072936109427           0.41675759226892173          1.0000   
         C         C         1.0       0.8191781676361702  0.22539758136329052           0.44871881057696   1.0000   
         C         C         1.0       0.7795675135518603  0.21448074478511736           0.44489157874328844          1.0000   
         C         C         1.0       0.7695341322191295  0.22751602783878896           0.4171897105698908 1.0000   
         C         C         1.0       0.7987655608823208  0.25073104634869614           0.39335696490057037          1.0000   
         C         C         1.0       0.8379291783343282  0.26373253804461133           0.39926820066594826          1.0000   
         C         C         1.0       0.8494082950906812  0.25328327434836806           0.4287756919924881 1.0000   
         H         H         1.0       0.945378362955555   0.4392116179452643  0.31670759790764264          1.0000   
         H         H         1.0       0.018296273389495354          0.46642222335882344          0.4027695196416039 1.0000   
         H         H         1.0       0.07736164296756698           0.5025838056006894 0.37169640944184984          1.0000   
         H         H         1.0       0.0054221785740802275         0.4722411900759415 0.27785208010471407          1.0000   
         H         H         1.0       0.9197739821465967  0.36856882814197395           0.33561508355354114          1.0000   
         H         H         1.0       0.8513610604245586  0.32094369392709093           0.31343530091065686          1.0000   
         H         H         1.0       0.7972418736657018  0.3603373305057374  0.3700724480866976 1.0000   
         H         H         1.0       0.8617109733723601  0.4110396729453113  0.3977203192497169 1.0000   
         H         H         1.0       0.8934223092867961  0.381241203717723   0.44078874448896554          1.0000   
         H         H         1.0       0.8781203143771555  0.3199648773074468  0.4568091277829133 1.0000   
         H         H         1.0       0.9704857401001996  0.3293716088514543  0.40123919714482914          1.0000   
         H         H         1.0       0.9870917846811906  0.39137149859266096           0.3761911180596998 1.0000   
         H         H         1.0       0.8907421902782066  0.27359453380996673           0.5535219965624836 1.0000   
         H         H         1.0       0.8695337143540222  0.2813099801602919  0.4990256052128259 1.0000   
         H         H         1.0       0.9566949931646501  0.26321531201313764           0.45487568071560935          1.0000   
         H         H         1.0       0.9815941846957599  0.2638807207835566  0.5113314360416312 1.0000   
         H         H         1.0       0.9278287312328128  0.28793392425333775           0.36274799360242915          1.0000   
         H         H         1.0       0.9328813768435529  0.24676578940696955           0.32672598950767984          1.0000   
         H         H         1.0       0.8835110549535771  0.1598800223262736  0.40164245312540436          1.0000   
         H         H         1.0       0.8800066082739748  0.20209568231396716           0.44196878289635627          1.0000   
         H         H         1.0       0.8277353644338029  0.21423920600484653           0.4696868434399859 1.0000   
         H         H         1.0       0.7572928511509351  0.19738213202215457           0.46359827092543016          1.0000   
         H         H         1.0       0.788236945053184   0.25351380491328956           0.3681613723786691 1.0000   
         H         H         1.0       0.8601238331251462  0.27699295697034165           0.37845634308678794          1.0000   
         C         C         1.0       0.20378420212227777           0.4253412528567704 0.6911549248820837 1.0000   
         C         C         1.0       0.20158121602713397           0.4242724140714756 0.6566875329576446 1.0000   
         C         C         1.0       0.17172814876136044           0.42417809118148125          0.6410630068237171 1.0000   
         C         C         1.0       0.14334900320874833           0.4270656936484781 0.6593795252622018 1.0000   
         C         C         1.0       0.14822618539843702           0.4306930340711874 0.6941671044997197 1.0000   
         C         C         1.0       0.18009651914557945           0.43219733391867454          0.7107829731362142 1.0000   
         H         H         1.0       0.21967293440079105           0.4155402894916343 0.6440085647472711 1.0000   
         H         H         1.0       0.16783679242982874           0.42255449741375256          0.6142256289620792 1.0000   
         H         H         1.0       0.1252994679925714  0.427560125063319   0.7112908338420052 1.0000   
         H         H         1.0       0.18484029204366448           0.43604793064373965          0.7384860040256117 1.0000   
         C         C         1.0       0.05532402740358133           0.3531068186055921 0.6511429620773755 1.0000   
         C         C         1.0       0.07684551922266625           0.38153986103787596          0.6272226381707519 1.0000   
         C         C         1.0       0.0659815580727976  0.3714407651448484  0.5932675705233544 1.0000   
         C         C         1.0       0.0307197927920142  0.3369081300186664  0.5854315461363788 1.0000   
         C         C         1.0       0.005064677301988452          0.3132192922185459 0.6096765026081821 1.0000   
         C         C         1.0       0.01867927315167983           0.3196352690649017 0.6426580482036032 1.0000   
         C         C         1.0       0.10545111901044857           0.4254462457387471 0.6409206023913    1.0000   
         C         C         1.0       0.11880142039904351           0.4578837015026867 0.6118752248202277 1.0000   
         C         C         1.0       0.09088050052281171           0.45817090416219086          0.5908475003489896 1.0000   
         C         C         1.0       0.10085683608963758           0.49126581928231033          0.5742373121577032 1.0000   
         C         C         1.0       0.1381409860482341  0.525066215866666   0.5761111011776205 1.0000   
         C         C         1.0       0.16699183307048981           0.5241077771853413 0.5940583289867482 1.0000   
         C         C         1.0       0.15773912796624812           0.4911638784672865 0.6109423613466467 1.0000   
         C         C         1.0       0.042225888324880057          0.4222246882178686 0.6669233637038332 1.0000   
         C         C         1.0       0.024906107666458288          0.4418685524845536 0.6756372604168496 1.0000   
         C         C         1.0       0.04973517946111583           0.4791264795333339 0.6889319972487246 1.0000   
         C         C         1.0       0.09001279141898633           0.49573578213899133          0.6900861357416764 1.0000   
         C         C         1.0       0.1076700010287861  0.47720658923610715           0.6816023179648243 1.0000   
         C         C         1.0       0.08445778923131164           0.44100972887413936          0.6669506855962831 1.0000   
         C         C         1.0       0.03304247606249611           0.506038037639625  0.6931797019156313 1.0000   
         C         C         1.0       0.9930218990018406  0.49612280587252566           0.5891350335269127 1.0000   
         C         C         1.0       0.9651386727576186  0.4842264910330155  0.6150541440417191 1.0000   
         C         C         1.0       0.9785298054100006  0.48889032460166376           0.6481911237140553 1.0000   
         C         C         1.0       0.019864919658145075          0.5080475951813825 0.6568264386608206 1.0000   
         C         C         1.0       0.04763035712342867           0.5232255814202293 0.6297168174091486 1.0000   
         C         C         1.0       0.033703938959376956          0.5156826233721882 0.5959215200462343 1.0000   
         C         C         1.0       0.06615275264851217           0.5472091985905765 0.7104176460747275 1.0000   
         C         C         1.0       0.08298273862961181           0.5499450272902747 0.7421753176044729 1.0000   
         C         C         1.0       0.10564202115177634           0.5839346472881555 0.7600285091882395 1.0000   
         C         C         1.0       0.11159192881726665           0.616019264809955  0.7479473694946369 1.0000   
         C         C         1.0       0.09678630814844835           0.6156706447953512 0.7158953155805319 1.0000   
         C         C         1.0       0.07642378550769036           0.5820258710724964 0.6968347427886733 1.0000   
         C         C         1.0       0.9848490949457271  0.5157151104287332  0.730853241703329  1.0000   
         C         C         1.0       0.9654227081552562  0.5125105488914102  0.7610154657224958 1.0000   
         C         C         1.0       0.9542734820251726  0.4816441198656522  0.7815972501244951 1.0000   
         C         C         1.0       0.9629947957282593  0.4552768281877597  0.7732967747790981 1.0000   
         C         C         1.0       0.984784964970091   0.4604896515427088  0.7442559075138294 1.0000   
         C         C         1.0       0.9985944952610779  0.49220608171959473           0.7217809348536791 1.0000   
         H         H         1.0       0.06035879609207773           0.3573602752616447 0.6770021226136408 1.0000   
         H         H         1.0       0.08263609473992628           0.39077939889045676          0.5726454923443127 1.0000   
         H         H         1.0       0.020134809185272662          0.3302264647638094 0.5606673161385589 1.0000   
         H         H         1.0       0.0006948749604369642         0.2971090128344207 0.6620174771875252 1.0000   
         H         H         1.0       0.06059747255823411           0.43204809214723716          0.5889992197328878 1.0000   
         H         H         1.0       0.07808201617132848           0.4870478567489036 0.5573025531467941 1.0000   
         H         H         1.0       0.1960041283899545  0.5491693743791198  0.5968247041579029 1.0000   
         H         H         1.0       0.18204389150295586           0.495993460994398  0.6248858576492458 1.0000   
         H         H         1.0       0.023524838583197427          0.39486397385619154          0.6556279674023273 1.0000   
         H         H         1.0       0.9938571955665146  0.42934784079734467           0.6711136273168888 1.0000   
         H         H         1.0       0.11223373217765031           0.5266133744059849 0.6952557645163765 1.0000   
         H         H         1.0       0.13790823499836513           0.49026386127244176          0.686825026450876  1.0000   
         H         H         1.0       0.9317551086667744  0.46951912545308694           0.612660583079946  1.0000   
         H         H         1.0       0.9553384456964534  0.4808651606041043  0.6680081321397022 1.0000   
         H         H         1.0       0.07880394297930504           0.5348840470281792 0.6345657142331451 1.0000   
         H         H         1.0       0.05428315386825977           0.5204391507344988 0.5766132267635746 1.0000   
         H         H         1.0       0.07427403689183132           0.523820458651719  0.7548507154300489 1.0000   
         H         H         1.0       0.11498503530941129           0.585935659458256  0.7873733211986622 1.0000   
         H         H         1.0       0.10379214906858403           0.6430846850598022 0.7061015690380837 1.0000   
         H         H         1.0       0.06728231687756625           0.5819806638719577 0.6715329369283037 1.0000   
         H         H         1.0       0.9896359967376341  0.5361068004953993  0.712263542152825  1.0000   
         H         H         1.0       0.9600461787020529  0.5338240187470944  0.7701190449135362 1.0000   
         H         H         1.0       0.9590254268911564  0.43386509711736443           0.7933098817602227 1.0000   
         H         H         1.0       0.9951680629635049  0.44149734389809686           0.7381183266954666 1.0000   
         C         C         1.0       0.9392985332384018  0.811866233547707   0.7524081361406432 1.0000   
         C         C         1.0       0.9056912303295855  0.7746811698483911  0.7457711393274553 1.0000   
         C         C         1.0       0.9094659685153065  0.7529547226583405  0.7222061411759106 1.0000   
         C         C         1.0       0.9455254685372281  0.7642923324155019  0.7066004906017123 1.0000   
         C         C         1.0       0.97982910345576    0.8012966723594759  0.7144777388216726 1.0000   
         C         C         1.0       0.976371444301886   0.8249664235288362  0.7376963592856108 1.0000   
         H         H         1.0       0.8766299033222869  0.7650355364153415  0.7593119944736486 1.0000   
         H         H         1.0       0.8794330388282927  0.7260965168404516  0.7201182914423061 1.0000   
         H         H         1.0       0.008723435529315537          0.8106385018511704 0.706196192291365  1.0000   
         H         H         1.0       0.0018696861685019162         0.8519105692212966 0.7472731326398582 1.0000   
         C         C         1.0       0.9995693103957242  0.7715993164548723  0.6345425267188061 1.0000   
         C         C         1.0       0.9865349077347455  0.7454249165422793  0.6605363227788182 1.0000   
         C         C         1.0       0.005942996233631481          0.7252331255225662 0.6618877235786783 1.0000   
         C         C         1.0       0.03199449724283787           0.7273247848682939 0.6367777079581717 1.0000   
         C         C         1.0       0.03793880220356516           0.7490695643900952 0.6091824115493408 1.0000   
         C         C         1.0       0.0260007695569886  0.7750452689868825  0.6092090242182316 1.0000   
         C         C         1.0       0.9482368280179303  0.7324061793658599  0.6863732621905935 1.0000   
         C         C         1.0       0.9134934241683192  0.705802045295556   0.6582835568382083 1.0000   
         C         C         1.0       0.9060385220089248  0.6706218799446483  0.6465744320842143 1.0000   
         C         C         1.0       0.8742937373152805  0.6490394560124486  0.6250421482578176 1.0000   
         C         C         1.0       0.849976558997841   0.6602156009226822  0.6148138766770167 1.0000   
         C         C         1.0       0.8605539634688011  0.6975303979638439  0.6227458899522645 1.0000   
         C         C         1.0       0.8901676549643519  0.71885975610897    0.6455010067322646 1.0000   
         C         C         1.0       0.9776304628478145  0.7234620550677635  0.7412266204854373 1.0000   
         C         C         1.0       0.9776073428537421  0.7026556632967518  0.7669449111024854 1.0000   
         C         C         1.0       0.9468247458967493  0.6634829639599901  0.7684389383016192 1.0000   
         C         C         1.0       0.9114693991189508  0.6516246840266203  0.750417470523934  1.0000   
         C         C         1.0       0.9111615725174478  0.6729721419871648  0.7254398000370547 1.0000   
         C         C         1.0       0.9467635152101717  0.7092986412427508  0.7179671109965532 1.0000   
         C         C         1.0       0.9504658278509279  0.633068648581269   0.7912685791323603 1.0000   
         C         C         1.0       0.06779692239412993           0.642600853261814  0.796395237909666  1.0000   
         C         C         1.0       0.03587694532275143           0.6204338520746271 0.8197544986206627 1.0000   
         C         C         1.0       0.00028421430927649816        0.618046949171039  0.8184428630049744 1.0000   
         C         C         1.0       0.9942402808995984  0.6382356132260752  0.7921429714537885 1.0000   
         C         C         1.0       0.025579218763972955          0.6582647912553098 0.7683124800308303 1.0000   
         C         C         1.0       0.060498230895425165          0.658470378486466  0.7702578760556287 1.0000   
         C         C         1.0       0.9230714184670672  0.5923478814962625  0.7755301075378497 1.0000   
         C         C         1.0       0.9316505842100541  0.5897936065296916  0.7421121351812214 1.0000   
         C         C         1.0       0.9066227951375383  0.5566980352981092  0.7241335760413695 1.0000   
         C         C         1.0       0.8746655314401787  0.5241065913323336  0.7401020375251423 1.0000   
         C         C         1.0       0.8672620856946659  0.5247914880909341  0.7737190643863838 1.0000   
         C         C         1.0       0.8942125487871116  0.5591200374769492  0.792036832040843  1.0000   
         C         C         1.0       0.8978862375584677  0.6247338861655267  0.8343417926772644 1.0000   
         C         C         1.0       0.8833484068744837  0.6353766514006284  0.8610033525784663 1.0000   
         C         C         1.0       0.9095878338551001  0.6582267078617916  0.8869885003220745 1.0000   
         C         C         1.0       0.9486151827044215  0.6685576033022792  0.8842769942732402 1.0000   
         C         C         1.0       0.9624015498596358  0.6589268084672456  0.8561895723877457 1.0000   
         C         C         1.0       0.9375386843321387  0.6373530315808248  0.829505647714799  1.0000   
         H         H         1.0       0.9911462757962236  0.7922369607206453  0.634060546704298  1.0000   
         H         H         1.0       0.9986582531380084  0.7058497851215495  0.6819709787151507 1.0000   
         H         H         1.0       0.04189409787149767           0.7094065803606016 0.636690529686273  1.0000   
         H         H         1.0       0.03366899935780654           0.7950810560865693 0.5903359088153814 1.0000   
         H         H         1.0       0.9239333044683908  0.6616264823494107  0.6558742954257683 1.0000   
         H         H         1.0       0.8718423447825207  0.6226302996819811  0.6169004582378266 1.0000   
         H         H         1.0       0.8428392935933194  0.7094827837978193  0.6162584174028192 1.0000   
         H         H         1.0       0.8955181004768034  0.7459005221711971  0.6533787045016091 1.0000   
         H         H         1.0       0.002031476157665857          0.7531112341867652 0.7393081517879387 1.0000   
         H         H         1.0       0.007947132406425528          0.7169214891164312 0.7782821835824638 1.0000   
         H         H         1.0       0.8861230950187011  0.623046677149325   0.7548375775867253 1.0000   
         H         H         1.0       0.8832800936977063  0.6580900928772487  0.7123251501328943 1.0000   
         H         H         1.0       0.03910956843549784           0.6057073999529223 0.8413936946009276 1.0000   
         H         H         1.0       0.9764626222984704  0.5954574809940969  0.8342395277399661 1.0000   
         H         H         1.0       0.02353265408337979           0.6719267343904712 0.7455357208095837 1.0000   
         H         H         1.0       0.08414388351303526           0.6750358938806441 0.7525313849165021 1.0000   
         H         H         1.0       0.9550872856017399  0.6128834919916638  0.7295902110269399 1.0000   
         H         H         1.0       0.9132667606821887  0.5545159741826782  0.6981750005094384 1.0000   
         H         H         1.0       0.8424524748325629  0.5024248329703905  0.7874239017109208 1.0000   
         H         H         1.0       0.8869931922682234  0.5581207395324617  0.8179830532632897 1.0000   
         H         H         1.0       0.8760240648755757  0.6118130103663245  0.8129762379690325 1.0000   
         H         H         1.0       0.8546578079803998  0.6319834026700245  0.858808975582478  1.0000   
         H         H         1.0       0.9699699341971316  0.6800397176537029  0.9045545136488093 1.0000   
         H         H         1.0       0.9937022332398401  0.6695427423733298  0.8530472576112961 1.0000   
         C         C         1.0       0.5956618431643912  0.4158378889391994  0.5212644387484862 1.0000   
         C         C         1.0       0.5829315442307359  0.4264434852744217  0.4940298322112583 1.0000   
         C         C         1.0       0.6060042898291684  0.4641561205725206  0.481412216451962  1.0000   
         C         C         1.0       0.641957439131436   0.4896117144725668  0.49668180674545614          1.0000   
         C         C         1.0       0.6495010637800985  0.48016328698901073           0.5277479312790554 1.0000   
         C         C         1.0       0.6273642895898635  0.4429065680828493  0.5394425860624366 1.0000   
         H         H         1.0       0.5594353339375627  0.40411419713217195           0.479179190032569  1.0000   
         H         H         1.0       0.6024908587099788  0.4720900843760015  0.45587729567947044          1.0000   
         H         H         1.0       0.6738505962883763  0.5000605839655331  0.5430871010009731 1.0000   
         H         H         1.0       0.6353026767160329  0.4361274247817407  0.5631114164982092 1.0000   
         C         C         1.0       0.7061907412464343  0.5729977098657968  0.5233762273017989 1.0000   
         C         C         1.0       0.7171061091897666  0.555326629148624   0.4985708916110507 1.0000   
         C         C         1.0       0.758140059988085   0.5705825692207387  0.4927735947681537 1.0000   
         C         C         1.0       0.7856776075481884  0.6008589541380431  0.5124626232971741 1.0000   
         C         C         1.0       0.7761023676156384  0.6196754829280218  0.5360820110911115 1.0000   
         C         C         1.0       0.7361595654950712  0.6050992353364065  0.5408649514298531 1.0000   
         C         C         1.0       0.6799644445172759  0.5224199152009026  0.47606312369267484          1.0000   
         C         C         1.0       0.6737443657131663  0.5504809280982138  0.45275950940472476          1.0000   
         C         C         1.0       0.7025358313753335  0.5724771143445804  0.4273877075953702 1.0000   
         C         C         1.0       0.6966779272618884  0.5927491757045981  0.4038179701555026 1.0000   
         C         C         1.0       0.6656658311632636  0.5976314815726601  0.4089902532661578 1.0000   
         C         C         1.0       0.6368404467700626  0.576492759469843   0.4337561787353091 1.0000   
         C         C         1.0       0.6430578646913468  0.5551873989287488  0.45666440501770567          1.0000   
         C         C         1.0       0.7099922832191596  0.4812258505421508  0.4745780686822216 1.0000   
         C         C         1.0       0.7129616521299273  0.45269876543632726           0.46056428788918324          1.0000   
         C         C         1.0       0.708125916351997   0.4457853363327856  0.4271966687566722 1.0000   
         C         C         1.0       0.6914255613675353  0.4610638698676632  0.4095238471159485 1.0000   
         C         C         1.0       0.6861482708954354  0.488184729594801   0.42326340450796285          1.0000   
         C         C         1.0       0.6945377134844828  0.4983349659890603  0.45700815050060206          1.0000   
         C         C         1.0       0.7265874595018912  0.4246693808427328  0.4069249104220573 1.0000   
         C         C         1.0       0.7814422041672003  0.459923336380783   0.3050821154553543 1.0000   
         C         C         1.0       0.7657456374395443  0.42357246681538746           0.31738670835575983          1.0000   
         C         C         1.0       0.744689977932177   0.412732667655512   0.34704858412935896          1.0000   
         C         C         1.0       0.7427850169207871  0.4382677405768728  0.3677966823058237 1.0000   
         C         C         1.0       0.7581239798010745  0.47389478058967166           0.3548439588467687 1.0000   
         C         C         1.0       0.776310059133844   0.4853323082232339  0.3235155830299868 1.0000   
         C         C         1.0       0.6876839522033372  0.3820611969965122  0.40729246136070035          1.0000   
         C         C         1.0       0.6561319924235703  0.37192443724764923           0.38530859338899204          1.0000   
         C         C         1.0       0.6215935190371379  0.33492630743979845           0.3863035636918054 1.0000   
         C         C         1.0       0.6188088952834917  0.3074332278072965  0.405951856213322  1.0000   
         C         C         1.0       0.6470885228893991  0.31829165771574924           0.43135058240230434          1.0000   
         C         C         1.0       0.6813356557383121  0.355184090179258   0.4316119414509686 1.0000   
         C         C         1.0       0.7837542801701987  0.4159745607256038  0.4354586961400044 1.0000   
         C         C         1.0       0.8165698447850039  0.43299575770547893           0.45854155373242744          1.0000   
         C         C         1.0       0.8394480374354547  0.4725951310234742  0.4663504820115635 1.0000   
         C         C         1.0       0.8280954045907267  0.49458476910303645           0.4509962437038074 1.0000   
         C         C         1.0       0.795255758765367   0.4789119468445516  0.4305743308153386 1.0000   
         C         C         1.0       0.7693310262210548  0.4384380681249476  0.42357284988099914          1.0000   
         H         H         1.0       0.6737391013527502  0.5607982552870666  0.5288053537528511 1.0000   
         H         H         1.0       0.7703509712715265  0.5577938154322221  0.4763263632162983 1.0000   
         H         H         1.0       0.8181808831207832  0.6117669152197494  0.5086246976807461 1.0000   
         H         H         1.0       0.7312371085759859  0.6211673991670906  0.5613111397858944 1.0000   
         H         H         1.0       0.72538816753276    0.5658706892379741  0.41953752562784075          1.0000   
         H         H         1.0       0.7202186828191334  0.6099666140714384  0.38365437158345805          1.0000   
         H         H         1.0       0.6111015368483016  0.5793268023780427  0.4386327328438019 1.0000   
         H         H         1.0       0.6212279527498625  0.5387553745819446  0.47538931197236667          1.0000   
         H         H         1.0       0.7153938116089086  0.4889542353359558  0.502835874910145  1.0000   
         H         H         1.0       0.7233495387170592  0.43965275542250054           0.47591620825663894          1.0000   
         H         H         1.0       0.6860201366595277  0.45624478478370306           0.38201863717616513          1.0000   
         H         H         1.0       0.6715060114112685  0.49844640063969453           0.405604901164725  1.0000   
         H         H         1.0       0.7659231538464532  0.4009735601805906  0.3035929686430593 1.0000   
         H         H         1.0       0.7312443057115608  0.38272388532807633           0.3546132559300308 1.0000   
         H         H         1.0       0.7579684232257073  0.4959528360228008  0.3667096044224836 1.0000   
         H         H         1.0       0.7884354285950763  0.5133810834231014  0.3132305424883335 1.0000   
         H         H         1.0       0.6596028739534955  0.3903086118308278  0.3645045649107033 1.0000   
         H         H         1.0       0.5994832361991634  0.33088587183951185           0.36863914972539064          1.0000   
         H         H         1.0       0.6438161552853504  0.29832895078361255           0.4504397811388902 1.0000   
         H         H         1.0       0.7009346970581459  0.3639473615761364  0.45472516779744004          1.0000   
         H         H         1.0       0.7669544735603528  0.38557452300354084           0.4335411378063748 1.0000   
         H         H         1.0       0.8239427433291355  0.4139839695599487  0.47177602902009314          1.0000   
         H         H         1.0       0.8440125509497721  0.5249033338907595  0.4528379618567439 1.0000   
         H         H         1.0       0.7904077152216958  0.49919587480504707           0.4192827242594506 1.0000   
         C         C         1.0       0.5723120507432842  0.1623027116094467  0.5963513789984379 1.0000   
         C         C         1.0       0.5929172112025033  0.15889100133466963           0.570327644774348  1.0000   
         C         C         1.0       0.6242968905999055  0.19228007551545614           0.5533158131928266 1.0000   
         C         C         1.0       0.6329767356317009  0.22876116461687726           0.5604331053470679 1.0000   
         C         C         1.0       0.6140752139107469  0.23118892274870234           0.5894389030893585 1.0000   
         C         C         1.0       0.5838922664659543  0.1983739592403619  0.605557304202245  1.0000   
         H         H         1.0       0.5843509909825272  0.13065780528453375           0.5611011349686381 1.0000   
         H         H         1.0       0.6407944628711224  0.18797245283401112           0.5337376259328327 1.0000   
         H         H         1.0       0.6250728345552597  0.25979177958871386           0.599587759941459  1.0000   
         H         H         1.0       0.5661699373453175  0.20417448356483023           0.6231579676661352 1.0000   
         C         C         1.0       0.6086840660069632  0.2765444974180269  0.52579709073385   1.0000   
         C         C         1.0       0.6499312009632487  0.29450934748316226           0.5314470064645368 1.0000   
         C         C         1.0       0.6747378722447736  0.3346679091307535  0.5339863674340443 1.0000   
         C         C         1.0       0.6598968499036701  0.3560487266523726  0.5271205140468201 1.0000   
         C         C         1.0       0.6194936594984031  0.33810168849971217           0.5186658525937821 1.0000   
         C         C         1.0       0.592342534490082   0.2966394213252956  0.5185499652430808 1.0000   
         C         C         1.0       0.6644815300630584  0.26574181653984114           0.5380485590824232 1.0000   
         C         C         1.0       0.6764076621377673  0.2634025391439627  0.5006756732787397 1.0000   
         C         C         1.0       0.7122054236547848  0.2924508470099693  0.48364546660678004          1.0000   
         C         C         1.0       0.7228105623988755  0.2871290977835727  0.45224740935093277          1.0000   
         C         C         1.0       0.6976595091733069  0.2532088382591641  0.4346676887690635 1.0000   
         C         C         1.0       0.6607946995697633  0.22585904234721485           0.4483545192141729 1.0000   
         C         C         1.0       0.650173433083095   0.23321023816929173           0.4801708690187085 1.0000   
         C         C         1.0       0.7100456671670949  0.30620205442126763           0.5893719918480698 1.0000   
         C         C         1.0       0.7460539249896773  0.3231815990075331  0.6074578744583801 1.0000   
         C         C         1.0       0.7757141595222798  0.31733214883749483           0.598161710817347  1.0000   
         C         C         1.0       0.7675588423258801  0.2915785493109267  0.5721382955156523 1.0000   
         C         C         1.0       0.7307177281458841  0.2714877230023595  0.5566007876661065 1.0000   
         C         C         1.0       0.7015658747027876  0.28076836530547417           0.5624980061256367 1.0000   
         C         C         1.0       0.8148086646184737  0.33327507003432805           0.6209430711458264 1.0000   
         C         C         1.0       0.8562857774619811  0.4326334749472206  0.6909479910702908 1.0000   
         C         C         1.0       0.8624609669720523  0.403296256435894   0.6990099649091923 1.0000   
         C         C         1.0       0.8483093644460304  0.3723109193702156  0.6782110745657595 1.0000   
         C         C         1.0       0.8292463811074969  0.36921141231069066           0.6477280567541811 1.0000   
         C         C         1.0       0.827001881658055   0.3997582660643033  0.6373586443599902 1.0000   
         C         C         1.0       0.8386658845564594  0.43035243060276096           0.6591379179107103 1.0000   
         C         C         1.0       0.8534380843237456  0.353971285212762   0.5952361781503475 1.0000   
         C         C         1.0       0.8887735954237792  0.358731664863092   0.6034408352074158 1.0000   
         C         C         1.0       0.9240492638282538  0.3859331056574622  0.5876015911890755 1.0000   
         C         C         1.0       0.9259562225863698  0.4059180807212697  0.5606184715317338 1.0000   
         C         C         1.0       0.891445827192495   0.4004861471588908  0.5496806449265498 1.0000   
         C         C         1.0       0.8554484892226801  0.37467706924945426           0.5663079893241568 1.0000   
         C         C         1.0       0.8208433372992766  0.27428892292432133           0.6327627082097411 1.0000   
         C         C         1.0       0.81462841929697    0.2448324596209194  0.6519490912139846 1.0000   
         C         C         1.0       0.794064942921362   0.23564824855304772           0.6833234316844519 1.0000   
         C         C         1.0       0.773059371928463   0.2517052011396174  0.6900364392503191 1.0000   
         C         C         1.0       0.7786734053933527  0.28155186006616334           0.6699062061862755 1.0000   
         C         C         1.0       0.802210505514661   0.2930472990013727  0.6403226208807247 1.0000   
         H         H         1.0       0.59170032113601    0.24561399541310686           0.5214795391690319 1.0000   
         H         H         1.0       0.7047979860246429  0.3470150712345157  0.5429369804458958 1.0000   
         H         H         1.0       0.6794299561904318  0.3876459848102789  0.5296747325522239 1.0000   
         H         H         1.0       0.5578690974481133  0.28165555294040956           0.5129007729830338 1.0000   
         H         H         1.0       0.7345449575532751  0.3189452532044761  0.4947746214626627 1.0000   
         H         H         1.0       0.751637008680968   0.309882781467143   0.4406760545427827 1.0000   
         H         H         1.0       0.6393669118774532  0.2012874137273158  0.43148778984151454          1.0000   
         H         H         1.0       0.6181315850597785  0.21435857041476794           0.4879065620227693 1.0000   
         H         H         1.0       0.6901740676366701  0.314873646095034   0.5950436145189008 1.0000   
         H         H         1.0       0.7500350229632655  0.3417765474267     0.6288396446346742 1.0000   
         H         H         1.0       0.7904674877107014  0.2848330650396803  0.5676776413669736 1.0000   
         H         H         1.0       0.7263210861663484  0.2545800243434483  0.5348154391044698 1.0000   
         H         H         1.0       0.8776583961509924  0.40584160684426607           0.723149895231557  1.0000   
         H         H         1.0       0.8508956892694002  0.34913340011782007           0.6854543684681453 1.0000   
         H         H         1.0       0.8110832715287388  0.3970343604059307  0.6151234913552849 1.0000   
         H         H         1.0       0.8380091098433987  0.45306205710831643           0.6477440941044185 1.0000   
         H         H         1.0       0.8894608079320026  0.34468547781934006           0.625602685064352  1.0000   
         H         H         1.0       0.9525385432385604  0.39332632982934385           0.5980130858394077 1.0000   
         H         H         1.0       0.8921309902857785  0.4162755531202941  0.5283195516501873 1.0000   
         H         H         1.0       0.8293106290597575  0.3721869283970161  0.5539534348068107 1.0000   
         H         H         1.0       0.8354652489517258  0.27785548445827934           0.6085655773692522 1.0000   
         H         H         1.0       0.8283797636586122  0.23012291529230516           0.6453931001645483 1.0000   
         H         H         1.0       0.7575399832842492  0.24458656789076333           0.713485121375068  1.0000   
         H         H         1.0       0.7743853449086141  0.30214506934940666           0.6819659966119278 1.0000   
         C         C         1.0       0.04633259386729294           0.6925866499848756 0.5340065348678218 1.0000   
         C         C         1.0       0.08535128922492485           0.7112740672069294 0.5201778057854063 1.0000   
         C         C         1.0       0.09436940326562127           0.6923096523260143 0.4951094121946854 1.0000   
         C         C         1.0       0.065009033598453   0.6554373639936101  0.48484565099346894          1.0000   
         C         C         1.0       0.027778827224191893          0.6362599319159281 0.5006636746995589 1.0000   
         C         C         1.0       0.019344249771084954          0.6550157345058406 0.5243890735956621 1.0000   
         H         H         1.0       0.10941716975928739           0.7397313511354494 0.5256216620603771 1.0000   
         H         H         1.0       0.1265933613850947  0.7074238288783256  0.4878664612494372 1.0000   
         H         H         1.0       0.005481937407938897          0.6091689095431968 0.49249348895910156          1.0000   
         H         H         1.0       0.9897923341657964  0.636961956728863   0.5376845264640289 1.0000   
         C         C         1.0       0.06919288823909175           0.5805789952202435 0.4862476686204328 1.0000   
         C         C         1.0       0.0927422105941571  0.6170587992917969  0.4737589157898034 1.0000   
         C         C         1.0       0.13324418185649778           0.6372279180957166 0.47767763986865175          1.0000   
         C         C         1.0       0.1503511437319458  0.6189842433554171  0.491541181669452  1.0000   
         C         C         1.0       0.12598787910111597           0.581054801882494  0.5033920046565068 1.0000   
         C         C         1.0       0.08548845967027519           0.5620021432439168 0.49955515686777424          1.0000   
         C         C         1.0       0.07684017129700571           0.6385133965253781 0.4531223588925444 1.0000   
         C         C         1.0       0.10117646582508089           0.6683822006019268 0.4228094006086064 1.0000   
         C         C         1.0       0.1254101970906838  0.6632514752206495  0.4002401126820701 1.0000   
         C         C         1.0       0.13654392993984432           0.681235791644508  0.3701893155142397 1.0000   
         C         C         1.0       0.12710974000829692           0.7073869196465461 0.36124432439077586          1.0000   
         C         C         1.0       0.10529373752127369           0.7138864113553579 0.38287636812172526          1.0000   
         C         C         1.0       0.09353090403605768           0.6958998789605148 0.41398243037016397          1.0000   
         C         C         1.0       0.03816640650982195           0.5772016306954969 0.410664623526966  1.0000   
         C         C         1.0       0.021252303131271022          0.5670374728575395 0.3792631935579495 1.0000   
         C         C         1.0       0.002614329110416369          0.5845283106628841 0.3656427599776815 1.0000   
         C         C         1.0       0.9935152014700798  0.6034904480265941  0.3888314644594048 1.0000   
         C         C         1.0       0.01029083044385426           0.6139492820883039 0.4210012424691692 1.0000   
         C         C         1.0       0.03834038730054323           0.6064475316773013 0.4302410116795024 1.0000   
         C         C         1.0       0.9944048329308948  0.5839775226566772  0.3252067800752888 1.0000   
         C         C         1.0       0.07183370095621378           0.5610501835915608 0.2714455616873153 1.0000   
         C         C         1.0       0.03506543004584883           0.5472701460237905 0.25891031787642144          1.0000   
         C         C         1.0       0.013549526587602445          0.5609213874233482 0.2700173267080978 1.0000   
         C         C         1.0       0.023722035946523112          0.5800994943703122 0.30015530663784923          1.0000   
         C         C         1.0       0.06322713134302482           0.5998437243838805 0.308924315727001  1.0000   
         C         C         1.0       0.08843667079612239           0.5915161505893304 0.29403543150371503          1.0000   
         C         C         1.0       0.0021391136864499227         0.6234708935024975 0.3097539679766384 1.0000   
         C         C         1.0       0.02107020335051879           0.6587258570802305 0.3252632719560919 1.0000   
         C         C         1.0       0.013782019130422762          0.6855654804601786 0.31531293897252344          1.0000   
         C         C         1.0       0.990293443665096   0.6797549707780485  0.28946136598275435          1.0000   
         C         C         1.0       0.978622593363933   0.6493188298056869  0.26859421930667243          1.0000   
         C         C         1.0       0.9809458027792518  0.619776463070854   0.2792446203235871 1.0000   
         C         C         1.0       0.917327731272073   0.5533787956476941  0.3267986194746019 1.0000   
         C         C         1.0       0.8824556257694337  0.529456933155482   0.30845343517784435          1.0000   
         C         C         1.0       0.8731355578086102  0.4945521275616624  0.2972656623245861 1.0000   
         C         C         1.0       0.9017198932934387  0.48485177858873024           0.30164748839115696          1.0000   
         C         C         1.0       0.9375464854519795  0.5109746999265965  0.3156024380471501 1.0000   
         C         C         1.0       0.9482939620789973  0.5471734048423303  0.3239603937552575 1.0000   
         H         H         1.0       0.034804534454318414          0.5640438096894274 0.48273940534808696          1.0000   
         H         H         1.0       0.15434225416894787           0.6667419683750411 0.47068718041641117          1.0000   
         H         H         1.0       0.18395854006378798           0.6352000500479197 0.49384619766202065          1.0000   
         H         H         1.0       0.06387361949288106           0.5328741221462163 0.5094171233991747 1.0000   
         H         H         1.0       0.12852719413143388           0.6394870946359826 0.4009509905424822 1.0000   
         H         H         1.0       0.15319963730965913           0.6745688464000854 0.3521951749799316 1.0000   
         H         H         1.0       0.10264579159744111           0.7377185167658754 0.3803906120483934 1.0000   
         H         H         1.0       0.07848089872023944           0.7055770397942794 0.4307996616815835 1.0000   
         H         H         1.0       0.06326147495346968           0.5738620856354304 0.4150648968016374 1.0000   
         H         H         1.0       0.028968704719202654          0.5517919099244171 0.3622378095833114 1.0000   
         H         H         1.0       0.9755443281267482  0.6142759790110524  0.3836992609340303 1.0000   
         H         H         1.0       0.006549170677687899          0.6339977504548275 0.43579105974163995          1.0000   
         H         H         1.0       0.022785992169552127          0.5233489430055872 0.2400437308554421 1.0000   
         H         H         1.0       0.9839691612889602  0.5518283597673775  0.26160101831686944          1.0000   
         H         H         1.0       0.07680365996800864           0.6252655603710101 0.3272439463357441 1.0000   
         H         H         1.0       0.11930170064851686           0.606725852579258  0.3022497157370175 1.0000   
         H         H         1.0       0.0372911294152205  0.6658143721027897  0.34773848361701176          1.0000   
         H         H         1.0       0.02768527593671588           0.7131706031289097 0.32837266022915773          1.0000   
         H         H         1.0       0.9567171268304634  0.6418583486462097  0.2495158320449119 1.0000   
         H         H         1.0       0.9615620886510488  0.5926631487281724  0.26549203044085773          1.0000   
         H         H         1.0       0.922515137838279   0.5802184574665162  0.33437835761115664          1.0000   
         H         H         1.0       0.8592265059428312  0.5359476939004229  0.30671071485472634          1.0000   
         H         H         1.0       0.8994711311993345  0.459525577827914   0.2910528405499745 1.0000   
         H         H         1.0       0.9626276339462909  0.5075685611390333  0.31961176119714524          1.0000   
         C         C         1.0       0.6640824713440644  0.2605932881338324  0.17186221366811683          1.0000   
         C         C         1.0       0.6270084312757921  0.23282410376145854           0.18739966636775485          1.0000   
         C         C         1.0       0.6085809161715146  0.24181600011367474           0.21223973257684212          1.0000   
         C         C         1.0       0.6251597472287902  0.27921507957315206           0.2229171956072459 1.0000   
         C         C         1.0       0.662021133932243   0.3064407589361428  0.21017140330127174          1.0000   
         C         C         1.0       0.6802480286632451  0.2982521224503965  0.18453327659668226          1.0000   
         H         H         1.0       0.6100969005916556  0.20455136535631785           0.17800079406570637          1.0000   
         H         H         1.0       0.5789778233261249  0.2183252022006123  0.2248402461672615 1.0000   
         H         H         1.0       0.676884157226958   0.33703300193764874           0.2159382448861613 1.0000   
         H         H         1.0       0.7068077445929455  0.3238169545618578  0.1756572777185937 1.0000   
         C         C         1.0       0.6481920706120633  0.35398974826332313           0.2695072692817183 1.0000   
         C         C         1.0       0.6089409259836231  0.32782532717772384           0.25783732809468196          1.0000   
         C         C         1.0       0.5810812253376492  0.338218931181047   0.26501467531049466          1.0000   
         C         C         1.0       0.5917044566282155  0.37068735226537786           0.28307805787781115          1.0000   
         C         C         1.0       0.6310980470954854  0.3963778550027023  0.2931621114028252 1.0000   
         C         C         1.0       0.6571411977282966  0.3853418231026265  0.2879189488523435 1.0000   
         C         C         1.0       0.5945840964769513  0.2867041694555027  0.24282693257419383          1.0000   
         C         C         1.0       0.5811040630175629  0.2644177775666679  0.27810162094257435          1.0000   
         C         C         1.0       0.5457475656526427  0.25336121867283184           0.2954485701140464 1.0000   
         C         C         1.0       0.5407209224055752  0.24222277122658192           0.3286285811997708 1.0000   
         C         C         1.0       0.5718181913687341  0.2436461133055871  0.3461318382277254 1.0000   
         C         C         1.0       0.6053978813836004  0.25356374805818577           0.32981346339394657          1.0000   
         C         C         1.0       0.6122845130146978  0.26711338370847976           0.29607326897910163          1.0000   
         C         C         1.0       0.579121794247886   0.30778949308110065           0.18615747175282166          1.0000   
         C         C         1.0       0.5603763430262869  0.2997263101055941  0.15633663750134297          1.0000   
         C         C         1.0       0.5231186698112029  0.26650523662484216           0.15177908976183   1.0000   
         C         C         1.0       0.505935568199384   0.24103848459811175           0.17831758312673018          1.0000   
         C         C         1.0       0.5261858843082837  0.24572854529317037           0.20755640250481924          1.0000   
         C         C         1.0       0.5630410309704088  0.2792272671637244  0.21177720701400332          1.0000   
         C         C         1.0       0.5038327613121306  0.2556665044286023  0.11376389060070304          1.0000   
         C         C         1.0       0.48015896353679793           0.34511663051442315          0.09663013737512327          1.0000   
         C         C         1.0       0.5182535923869738  0.35266879144684765           0.08767897091638166          1.0000   
         C         C         1.0       0.523752770735091   0.3234320784544492  0.09181210776313398          1.0000   
         C         C         1.0       0.49492908919471085           0.28868295727230625          0.10657986328392854          1.0000   
         C         C         1.0       0.4603507305898506  0.28588824268400936           0.11896087679956069          1.0000   
         C         C         1.0       0.453065508673774   0.3129258505274048  0.11372963880927389          1.0000   
         C         C         1.0       0.46755636102638937           0.21298113648037753          0.10290814237682817          1.0000   
         C         C         1.0       0.464318582874866   0.17980714554668373           0.1156546293498316 1.0000   
         C         C         1.0       0.4312758542802233  0.1438843134884893  0.10553122275504977          1.0000   
         C         C         1.0       0.4047902103537642  0.14024873730939535           0.08099145395015306          1.0000   
         C         C         1.0       0.41011638289159447           0.17445703186245395          0.0679648645566251 1.0000   
         C         C         1.0       0.44002006954271905           0.2096129319462382 0.07974287790233991          1.0000   
         C         C         1.0       0.535522479448932   0.26318043723069046           0.05254687802646707          1.0000   
         C         C         1.0       0.5613187181533175  0.2626589632182298  0.03125134278195807          1.0000   
         C         C         1.0       0.5879359789426767  0.2536229030047882  0.04154042875534336          1.0000   
         C         C         1.0       0.5873293904117872  0.24476239744731082           0.07578012613838192          1.0000   
         C         C         1.0       0.5629060042451264  0.24600435935662834           0.09890186069524169          1.0000   
         C         C         1.0       0.5382932802266726  0.2586000668994321  0.08770023000410121          1.0000   
         H         H         1.0       0.6726170636520031  0.34940376368446613           0.26448575495820864          1.0000   
         H         H         1.0       0.5520074421154898  0.32076827586815154           0.252220430980792  1.0000   
         H         H         1.0       0.5695445649360174  0.3797681346458869  0.2850206685908385 1.0000   
         H         H         1.0       0.6874957569500066  0.4048841767391065  0.2961903480868676 1.0000   
         H         H         1.0       0.5195578437338549  0.25083499753956606           0.2839421252854194 1.0000   
         H         H         1.0       0.5108511828012571  0.23099493970639526           0.3427029820483495 1.0000   
         H         H         1.0       0.6293236823276162  0.2524474748151891  0.3431120258674643 1.0000   
         H         H         1.0       0.6432077078778244  0.27914929032642394           0.2871447006264129 1.0000   
         H         H         1.0       0.6084386764710104  0.33423611249360624           0.1897731165696247 1.0000   
         H         H         1.0       0.5775032477014935  0.31923740162299913           0.13515004078814952          1.0000   
         H         H         1.0       0.47771681881513267           0.2126673212874906 0.17560044290890156          1.0000   
         H         H         1.0       0.511234794447664   0.2217690946993012  0.22525520460780532          1.0000   
         H         H         1.0       0.5404462874904185  0.3805128238476282  0.07582044388822862          1.0000   
         H         H         1.0       0.553581992625046   0.3294188103228676  0.08820837859694874          1.0000   
         H         H         1.0       0.43723118608003625           0.2602322092492412 0.13018715426003347          1.0000   
         H         H         1.0       0.4230304940566257  0.3069671025672591  0.12221948404509075          1.0000   
         H         H         1.0       0.48888110603195944           0.18267913207586375          0.12984994136266187          1.0000   
         H         H         1.0       0.4231791135692573  0.11633628829007417           0.11347781004061608          1.0000   
         H         H         1.0       0.3897845280533103  0.1729739213683061  0.047558624453904796         1.0000   
         H         H         1.0       0.4454401625529148  0.23457392722459083           0.06640473699040172          1.0000   
         H         H         1.0       0.5138715911093021  0.26783406791875003           0.04187540837143766          1.0000   
         H         H         1.0       0.5654336971127805  0.27204765715812007           0.005764667688568537         1.0000   
         H         H         1.0       0.6090027419849006  0.2399109690157273  0.08459488105044399          1.0000   
         H         H         1.0       0.5669314575759677  0.2403109408204922  0.1256211334691227 1.0000   
         C         C         1.0       0.5755624231869767  0.5312581146106021  0.8651700323856519 1.0000   
         C         C         1.0       0.603260860329312   0.5543214847472719  0.8904334798466944 1.0000   
         C         C         1.0       0.6018865187702851  0.540825030899838   0.922276887286327  1.0000   
         C         C         1.0       0.5689616814970697  0.5032636354320772  0.9313220522833099 1.0000   
         C         C         1.0       0.5396717756989662  0.4814490911144092  0.9064673544696836 1.0000   
         C         C         1.0       0.5424611131955629  0.49481149939920577           0.8738325272709374 1.0000   
         H         H         1.0       0.6318115676115899  0.579500510090368   0.8817237896080722 1.0000   
         H         H         1.0       0.6276580392646067  0.5586439863585263  0.9389164864346067 1.0000   
         H         H         1.0       0.5168932263689376  0.45146910846143035           0.9103507346482117 1.0000   
         H         H         1.0       0.5169711270733929  0.4758788319878316  0.8562361993225502 1.0000   
         C         C         1.0       0.5008024050597736  0.44443868486402616           0.9881903346810716 1.0000   
         C         C         1.0       0.5374729526880347  0.44894095697220004           0.9821880832606372 1.0000   
         C         C         1.0       0.5422625053942516  0.42103401857912826           0.9953905892909095 1.0000   
         C         C         1.0       0.5123694498935762  0.3931692235238287  0.017410508277132086         1.0000   
         C         C         1.0       0.47764618113929685           0.3915859264784102 0.02533579872744318          1.0000   
         C         C         1.0       0.4722396259484419  0.41644923973482234           0.009404759488274017         1.0000   
         C         C         1.0       0.5739911806427064  0.48821049133703315           0.9677378410369758 1.0000   
         C         C         1.0       0.5774483915221484  0.5167277516763976  0.9981861585827387 1.0000   
         C         C         1.0       0.5944572934527858  0.5167205684651595  0.028023088235204163         1.0000   
         C         C         1.0       0.5876754211013068  0.5298386432618276  0.058059154925093504         1.0000   
         C         C         1.0       0.5704215936002849  0.5489709153124163  0.056691364744758665         1.0000   
         C         C         1.0       0.5549413516594683  0.5526273344401605  0.02778356547482863          1.0000   
         C         C         1.0       0.5591899501526849  0.536842678781622   0.9981940680914281 1.0000   
         C         C         1.0       0.6122783370532678  0.460120270651335   0.9376857949688392 1.0000   
         C         C         1.0       0.645187912511247   0.4578788146932729  0.9343223456254708 1.0000   
         C         C         1.0       0.6825027087393805  0.48636082911600204           0.9465690317300561 1.0000   
         C         C         1.0       0.6836353924848676  0.5144484645013501  0.9660812175263213 1.0000   
         C         C         1.0       0.6517359335753535  0.5169386774811172  0.9717519363078801 1.0000   
         C         C         1.0       0.6134097749542546  0.488498016867735   0.9581982524182454 1.0000   
         C         C         1.0       0.7247594052642341  0.4889623169992893  0.944315920774428  1.0000   
         C         C         1.0       0.7318579798201136  0.4274338587140893  0.8541967715730068 1.0000   
         C         C         1.0       0.7526632613913554  0.43214720951178437           0.8845077581097984 1.0000   
         C         C         1.0       0.7499402417064711  0.4512734225781864  0.9123105517229633 1.0000   
         C         C         1.0       0.7273772524886516  0.4673053723093877  0.9108792293401117 1.0000   
         C         C         1.0       0.7116409953043883  0.4666556293685413  0.8802402670790267 1.0000   
         C         C         1.0       0.7137020091452349  0.44784749681004626           0.8520139466702332 1.0000   
         C         C         1.0       0.7208532801440549  0.4692200473434313  0.9802709023414257 1.0000   
         C         C         1.0       0.7363372833202854  0.48624222839114056           0.01109349295101092          1.0000   
         C         C         1.0       0.7349634104857086  0.4662290461075451  0.0397828290918989 1.0000   
         C         C         1.0       0.7178804762369251  0.4260732453633495  0.03572200656160107          1.0000   
         C         C         1.0       0.6997925764201364  0.40865721384910886           0.0070226426772264094        1.0000   
         C         C         1.0       0.7011781371937705  0.42966272211923223           0.9797993638777578 1.0000   
         C         C         1.0       0.8005895601403299  0.5341908450863633  0.9516397277711279 1.0000   
         C         C         1.0       0.8359359587394696  0.5708877743911691  0.9559788507556032 1.0000   
         C         C         1.0       0.8384460966349995  0.602729475554939   0.9455400880271366 1.0000   
         C         C         1.0       0.8041330440073773  0.5991312655909514  0.9339295906593135 1.0000   
         C         C         1.0       0.7693671513624092  0.5637278442550739  0.9295041078015447 1.0000   
         C         C         1.0       0.7659258623980387  0.5304445124957425  0.9416724853470078 1.0000   
         H         H         1.0       0.4937952997865402  0.46410741924429894           0.9774574861565882 1.0000   
         H         H         1.0       0.5676249853965447  0.42107740073685546           0.9902569402062477 1.0000   
         H         H         1.0       0.5153465440356375  0.36924850811253007           0.025566673549562102         1.0000   
         H         H         1.0       0.4419336923463098  0.41122568022297784           0.014685083871246007         1.0000   
         H         H         1.0       0.6059761486655447  0.49923696005684054           0.03102731627343802          1.0000   
         H         H         1.0       0.5958087197249866  0.5244702939232878  0.08073796009397638          1.0000   
         H         H         1.0       0.5384501889941103  0.5669340489556636  0.026639475958593062         1.0000   
         H         H         1.0       0.5413528157143639  0.5314358025481306  0.9752409923134746 1.0000   
         H         H         1.0       0.5852110368325021  0.4381828616161823  0.9272579571134919 1.0000   
         H         H         1.0       0.6441532632195298  0.43504216025107856           0.9205289318376929 1.0000   
         H         H         1.0       0.7118508436839969  0.5338541522407488  0.980317070151224  1.0000   
         H         H         1.0       0.6577216462644884  0.5395825266469148  0.9870431143024564 1.0000   
         H         H         1.0       0.767637830789995   0.41879396139739966           0.8859047193797763 1.0000   
         H         H         1.0       0.7623118508305715  0.4517048963261426  0.9361232593316501 1.0000   
         H         H         1.0       0.6946391403614994  0.4795511700068157  0.8772604820834305 1.0000   
         H         H         1.0       0.7040664908092125  0.45073179407797137           0.8274819035894996 1.0000   
         H         H         1.0       0.7515705318783669  0.5181533576161519  0.012429789115223189         1.0000   
         H         H         1.0       0.7472527287415348  0.47744304244727215           0.06506241404591195          1.0000   
         H         H         1.0       0.6815414284234212  0.37842560017818316           0.006182285610504712         1.0000   
         H         H         1.0       0.685924823559917   0.4120208125848451  0.9554523163480075 1.0000   
         H         H         1.0       0.8011862156071458  0.5083120279956488  0.9564662494400291 1.0000   
         H         H         1.0       0.8605786095207756  0.5701216988905975  0.9645873687997458 1.0000   
         H         H         1.0       0.8030637223370135  0.6233123697058077  0.9298239468093878 1.0000   
         H         H         1.0       0.742304677614024   0.5621298658807736  0.9232275843802109 1.0000   
         C         C         1.0       0.6919684982309123  0.17631723109372865           0.024583908813547328         1.0000   
         C         C         1.0       0.6921903766967694  0.17968329199877936           0.9896755601819387 1.0000   
         C         C         1.0       0.7253396233196032  0.20947667933713524           0.9737732021376403 1.0000   
         C         C         1.0       0.7599257131198489  0.23432715711376773           0.9916123378932324 1.0000   
         C         C         1.0       0.7613147885501516  0.2245749262213942  0.02454635237875591          1.0000   
         C         C         1.0       0.7276155188428536  0.19752409654556383           0.04225011084074737          1.0000   
         H         H         1.0       0.6632323144068138  0.15899921327900116           0.977128341072599  1.0000   
         H         H         1.0       0.7208874965690091  0.21562779764365747           0.9478909984994657 1.0000   
         H         H         1.0       0.7867641785281768  0.24331435693421108           0.03972859820782615          1.0000   
         H         H         1.0       0.727662395585521   0.193549292945434   0.0705064798077657 1.0000   
         C         C         1.0       0.8572627226417064  0.33633985298642727           0.012505401811419903         1.0000   
         C         C         1.0       0.8356595983029179  0.2995221101754038  0.9995657413377059 1.0000   
         C         C         1.0       0.8534819916453279  0.278561296288719   0.00013377331698483097       1.0000   
         C         C         1.0       0.8895262428676197  0.29162849574591265           0.01677874263381729          1.0000   
         C         C         1.0       0.9105448628884412  0.3282761809216089  0.031437515709440866         1.0000   
         C         C         1.0       0.8937976508090949  0.3499258285139619  0.02878669809181522          1.0000   
         C         C         1.0       0.7917767654437032  0.2793435030099074  0.9822848448275548 1.0000   
         C         C         1.0       0.7660528233586636  0.2964247131477552  0.9936532498084154 1.0000   
         C         C         1.0       0.7625738314257594  0.30455294728325605           0.027517338345486975         1.0000   
         C         C         1.0       0.7301803968804522  0.3047900592797697  0.03912300360314869          1.0000   
         C         C         1.0       0.7001667598119293  0.29723575691117393           0.015736281485489556         1.0000   
         C         C         1.0       0.7070711487255507  0.29581068844218467           0.9816523962313645 1.0000   
         C         C         1.0       0.7389877370692002  0.2938491757814871  0.9705922607569993 1.0000   
         C         C         1.0       0.8036053811842232  0.2636275827667616  0.9193373815301847 1.0000   
         C         C         1.0       0.8181101649527917  0.2755993082991986  0.8873397287313153 1.0000   
         C         C         1.0       0.8318311922974787  0.3129250621892604  0.8777375162566803 1.0000   
         C         C         1.0       0.8318585932991978  0.33692274492951513           0.9020329219547656 1.0000   
         C         C         1.0       0.8233528714128697  0.3269248450603382  0.9335738734211683 1.0000   
         C         C         1.0       0.8053933038785416  0.28906244988655644           0.9441656724523543 1.0000   
         C         C         1.0       0.84646119500677    0.32721026184524826           0.840261565821956  1.0000   
         C         C         1.0       0.9729364678369642  0.3897350540233142  0.8756881640430026 1.0000   
         C         C         1.0       0.9519943197863603  0.35035146966531805           0.8684726124695821 1.0000   
         C         C         1.0       0.9131629559942029  0.33187977618878495           0.8559203939605178 1.0000   
         C         C         1.0       0.8925529592799915  0.349971658023062   0.8500475933498565 1.0000   
         C         C         1.0       0.9149525658736655  0.38968077644837595           0.8554968204843831 1.0000   
         C         C         1.0       0.9525257838067317  0.4072887330155001  0.8695940193253648 1.0000   
         C         C         1.0       0.8262596878108256  0.3508719286021578  0.8282430250203601 1.0000   
         C         C         1.0       0.7878946355363944  0.3378290950580998  0.83818569499138   1.0000   
         C         C         1.0       0.7739405240686507  0.36113435668479626           0.8336776975447776 1.0000   
         C         C         1.0       0.7928415562112523  0.393528584486354   0.8136745077435119 1.0000   
         C         C         1.0       0.8291466694213188  0.40376247789772884           0.7985432680553168 1.0000   
         C         C         1.0       0.8450048423404212  0.38221671519957084           0.804503655616046  1.0000   
         C         C         1.0       0.8617072247582455  0.3070510685762579  0.7852945025819533 1.0000   
         C         C         1.0       0.8538507780333757  0.27958041967326613           0.761159544499938  1.0000   
         C         C         1.0       0.8182274114246074  0.2440450852260564  0.7619586097872146 1.0000   
         C         C         1.0       0.7876256111188566  0.237524294456907   0.7847201329511635 1.0000   
         C         C         1.0       0.7959627981089575  0.26444460554879745           0.8084623775006333 1.0000   
         C         C         1.0       0.8343501396286425  0.2982468483933462  0.8115779525517883 1.0000   
         H         H         1.0       0.842264392716707   0.3509469975432116  0.010171427260210253         1.0000   
         H         H         1.0       0.8366017339573171  0.24925846162497964           0.9912349543821408 1.0000   
         H         H         1.0       0.9045308351115594  0.27565421331046625           0.01573534524857756          1.0000   
         H         H         1.0       0.9055823695839516  0.374407905651195   0.045162490455700866         1.0000   
         H         H         1.0       0.7868583719951321  0.3123013392404073  0.043975328332031216         1.0000   
         H         H         1.0       0.7242433622514654  0.30338813423677613           0.06472131628044586          1.0000   
         H         H         1.0       0.6852822708689313  0.292665986624735   0.9635969850467884 1.0000   
         H         H         1.0       0.7376511280925365  0.286143710066192   0.9438625119858453 1.0000   
         H         H         1.0       0.7913707194212519  0.23378214713236836           0.9244318265021063 1.0000   
         H         H         1.0       0.8217481756649133  0.2566767992961031  0.87093056394246   1.0000   
         H         H         1.0       0.8474153055264247  0.3673542319285021  0.8982424310021764 1.0000   
         H         H         1.0       0.8231454488106826  0.34704800691445653           0.9517255706254847 1.0000   
         H         H         1.0       0.9639108215930695  0.3337084688339253  0.8773449408993439 1.0000   
         H         H         1.0       0.8977342398413035  0.30218568374100535           0.8487547007311325 1.0000   
         H         H         1.0       0.9027298470119552  0.40656073938995707           0.8610804422842466 1.0000   
         H         H         1.0       0.963735172775184   0.4363175805961566  0.8757746594101145 1.0000   
         H         H         1.0       0.7700234454348488  0.31515901059504164           0.8547587357200189 1.0000   
         H         H         1.0       0.7430502399614621  0.34853238870184033           0.8459694822938355 1.0000   
         H         H         1.0       0.8449911005515456  0.4298250747636915  0.7819633798574566 1.0000   
         H         H         1.0       0.8755307665208001  0.39436169383647207           0.7974596685534712 1.0000   
         H         H         1.0       0.8904033130008     0.3337165892687523  0.7834673882814808 1.0000   
         H         H         1.0       0.8761246537099837  0.28209400147876756           0.7437242192102351 1.0000   
         H         H         1.0       0.7582329085243037  0.21241179501556254           0.7853315522782717 1.0000   
         H         H         1.0       0.7707173295404709  0.2575640470643765  0.8246254212534782 1.0000   
         C         C         1.0       0.016088361791561923          0.4027876818062376 0.0577034981392377 1.0000   
         C         C         1.0       0.02882636924639992           0.3903310316388849 0.08322825310894322          1.0000   
         C         C         1.0       0.04017383498595439           0.40890516875873656          0.11237388856114627          1.0000   
         C         C         1.0       0.037595854485836355          0.4401626790067504 0.1180354601070075 1.0000   
         C         C         1.0       0.03305854422538412           0.4572215902966324 0.08937918922550625          1.0000   
         C         C         1.0       0.02099256217347123           0.43785716042802825          0.05834658150155825          1.0000   
         H         H         1.0       0.02538038144480037           0.36257330274608157          0.0814476223844518 1.0000   
         H         H         1.0       0.05315588655357106           0.39967481331420107          0.13082776166881027          1.0000   
         H         H         1.0       0.02395015703924308           0.47645803569254813          0.092958146938251  1.0000   
         H         H         1.0       0.00797513578324649           0.444836537164129  0.038365597678803987         1.0000   
         C         C         1.0       0.09984519023753369           0.5143485719118849 0.15575836883553684          1.0000   
         C         C         1.0       0.05905290718846201           0.4981413799734878 0.1588144723238405 1.0000   
         C         C         1.0       0.04572861264498185           0.5224690573680417 0.15893999815255075          1.0000   
         C         C         1.0       0.07286057574926419           0.5619310566555962 0.15788206653575876          1.0000   
         C         C         1.0       0.11255486845714113           0.5766533971511095 0.1529895407958588 1.0000   
         C         C         1.0       0.12758344431913216           0.5533805302196613 0.15444001512352878          1.0000   
         C         C         1.0       0.028583440928409365          0.45036042479755084          0.15627463984102574          1.0000   
         C         C         1.0       0.036300774753114995          0.4279943167109087 0.18577774111976297          1.0000   
         C         C         1.0       0.010024302634716875          0.388452081420212  0.18755768979568707          1.0000   
         C         C         1.0       0.017108588815627046          0.36786201114290024          0.2090023002021057 1.0000   
         C         C         1.0       0.0470401381987704  0.3858965354186771  0.23295462286187663          1.0000   
         C         C         1.0       0.07082541990228042           0.4251798427091223 0.23464688744640116          1.0000   
         C         C         1.0       0.06435145320110158           0.44588289260977826          0.2122991159299703 1.0000   
         C         C         1.0       0.9544194661119256  0.4122860980894012  0.13524981412493833          1.0000   
         C         C         1.0       0.9139334319432161  0.3960039365657018  0.14003233664731213          1.0000   
         C         C         1.0       0.8991116930432534  0.40515360596008376           0.16921973880159571          1.0000   
         C         C         1.0       0.9281233101251347  0.42839952695949274           0.1937769533565784 1.0000   
         C         C         1.0       0.9691155746972742  0.4428837662098812  0.18922748212952545          1.0000   
         C         C         1.0       0.9833790959547506  0.43678556766536414           0.15994171495154788          1.0000   
         C         C         1.0       0.8555033369077089  0.39671131800547155           0.17020753946481335          1.0000   
         C         C         1.0       0.8923250845609969  0.5087245174414833  0.12914179820057625          1.0000   
         C         C         1.0       0.8862763157767498  0.5024256931481114  0.16331518406789194          1.0000   
         C         C         1.0       0.8709608136324776  0.46662464544650323           0.176604596391628  1.0000   
         C         C         1.0       0.8651113093989901  0.4366824127370151  0.15590335144014447          1.0000   
         C         C         1.0       0.8707638548333458  0.4428757864314278  0.12164438095474589          1.0000   
         C         C         1.0       0.8822034796770319  0.47768211891353374           0.10838889088063587          1.0000   
         C         C         1.0       0.8356880196403088  0.38327339336768657           0.20657996346487614          1.0000   
         C         C         1.0       0.8036636239359679  0.38496238381811027           0.21721072857546297          1.0000   
         C         C         1.0       0.7808894952264793  0.3646254934076475  0.24454438118686658          1.0000   
         C         C         1.0       0.7908245148244657  0.344072129818859   0.26382068355603117          1.0000   
         C         C         1.0       0.8219619332149917  0.3413567388716436  0.25298372472451647          1.0000   
         C         C         1.0       0.8444844106597782  0.361079031640206   0.2260927893567566 1.0000   
         C         C         1.0       0.7885390797559343  0.35944182786676465           0.13527987454847526          1.0000   
         C         C         1.0       0.7550342573713038  0.3279225051943292  0.12300837432395129          1.0000   
         C         C         1.0       0.7511049950694019  0.29339736686029655           0.1291780162172447 1.0000   
         C         C         1.0       0.7839257114899998  0.29250359830479883           0.13739185760301073          1.0000   
         C         C         1.0       0.8207035063251402  0.3269759905220338  0.14594792721530855          1.0000   
         C         C         1.0       0.8227216203531615  0.3611509181115155  0.1479637801204522 1.0000   
         H         H         1.0       0.11292270384035286           0.49660574750075026          0.15455722549317752          1.0000   
         H         H         1.0       0.012349323903883658          0.510786561158217  0.1592394229171664 1.0000   
         H         H         1.0       0.05936291351931611           0.5784684614280541 0.15566091552937786          1.0000   
         H         H         1.0       0.15861707048245255           0.5637790152742462 0.1505612851770397 1.0000   
         H         H         1.0       0.9865629973136223  0.370017956165235   0.17068285500273592          1.0000   
         H         H         1.0       0.9973845354990465  0.3363895344250489  0.2112056061738622 1.0000   
         H         H         1.0       0.09485349554238276           0.4415106896468496 0.25252358102096983          1.0000   
         H         H         1.0       0.08636133367312482           0.47457842625668295          0.21441340977075285          1.0000   
         H         H         1.0       0.961596592629358   0.403312598688614   0.11144575986673039          1.0000   
         H         H         1.0       0.891819092891376   0.37688234090568207           0.12105333404092787          1.0000   
         H         H         1.0       0.9176511798459781  0.4368247393340746  0.21514951800372106          1.0000   
         H         H         1.0       0.9899500646216887  0.4597036396379663  0.21110555789453728          1.0000   
         H         H         1.0       0.8895296133248765  0.5249508513627971  0.17884137004792808          1.0000   
         H         H         1.0       0.8686324823106246  0.46223280541045864           0.2029810305527385 1.0000   
         H         H         1.0       0.8673042246906071  0.42088025583279287           0.10508636427155273          1.0000   
         H         H         1.0       0.8811033255489984  0.47926867187808275           0.08143895548621649          1.0000   
         H         H         1.0       0.7917591989978546  0.3973233097417372  0.2017654760293743 1.0000   
         H         H         1.0       0.7489436677909617  0.3562299246782563  0.2475479138210389 1.0000   
         H         H         1.0       0.8286753789629755  0.3210123035374413  0.26178796564142415          1.0000   
         H         H         1.0       0.8726031097085726  0.3612353710231148  0.22196121259078339          1.0000   
         H         H         1.0       0.791037610317884   0.38610536835311166           0.13584851996997646          1.0000   
         H         H         1.0       0.7317495397738266  0.33079584990740946           0.1165961322708647 1.0000   
         H         H         1.0       0.7818269185548351  0.26558437741118374           0.14133262290536938          1.0000   
         H         H         1.0       0.8450182425905117  0.32678962101577547           0.15752805027679984          1.0000   
         C         C         1.0       0.10046258452915542           0.6789911635690574 0.9331745786284409 1.0000   
         C         C         1.0       0.07600219462807338           0.6400173381574961 0.9392783028066252 1.0000   
         C         C         1.0       0.05409529046875017           0.6241874936758562 0.9689022612071976 1.0000   
         C         C         1.0       0.05211711725568402           0.6487614981974394 0.9926678488112485 1.0000   
         C         C         1.0       0.07746939700641642           0.6886618171967838 0.9860107886718779 1.0000   
         C         C         1.0       0.09770631783072803           0.702537036472256  0.9564877535145926 1.0000   
         H         H         1.0       0.07716941081328695           0.6193236871139013 0.9219012053269436 1.0000   
         H         H         1.0       0.039212027872712385          0.5931404600008126 0.9730291372680395 1.0000   
         H         H         1.0       0.07990526686955235           0.709446423512796  0.0036499646373346906        1.0000   
         H         H         1.0       0.1190440479305428  0.7336014701247289  0.9502666897162715 1.0000   
         C         C         1.0       0.9943185891258166  0.6739927884019987  0.018561786039971162         1.0000   
         C         C         1.0       0.0007375457160565535         0.6507138325417638 0.03947020072473428          1.0000   
         C         C         1.0       0.9810454559486314  0.6404930088221289  0.07074563247884136          1.0000   
         C         C         1.0       0.955954688111641   0.6524195335970793  0.0794972861839065 1.0000   
         C         C         1.0       0.9517471828955714  0.676678131307719   0.059683209686114624         1.0000   
         C         C         1.0       0.9730307181054763  0.6890265087731128  0.030432387907421088         1.0000   
         C         C         1.0       0.025752999670032084          0.6331147508820805 0.028231697566171166         1.0000   
         C         C         1.0       0.05979187538544051           0.6388840801073792 0.05482544880739226          1.0000   
         C         C         1.0       0.06827593391337428           0.6623502888876777 0.08223017134299226          1.0000   
         C         C         1.0       0.09270056528816162           0.6653789614540017 0.10845071286282093          1.0000   
         C         C         1.0       0.11038707534413095           0.6461289344082057 0.1076497673134249 1.0000   
         C         C         1.0       0.10836440062740427           0.6273321989875178 0.07897574613475133          1.0000   
         C         C         1.0       0.08081403041571877           0.6215745235903215 0.05362088453071956          1.0000   
         C         C         1.0       0.9619108260596427  0.5835270979668751  0.9950060021029943 1.0000   
         C         C         1.0       0.9319160660909301  0.5471878206298284  0.986370525524145  1.0000   
         C         C         1.0       0.934332975392047   0.5168309239348271  0.9955399942854263 1.0000   
         C         C         1.0       0.9543882922593631  0.5218515144186012  0.024502652040268913         1.0000   
         C         C         1.0       0.982631978031868   0.5580562355935693  0.03597043276595513          1.0000   
         C         C         1.0       0.9891437053715927  0.5891924936768184  0.018581085999685776         1.0000   
         C         C         1.0       0.9103508406258892  0.47531113073785947           0.975053017040721  1.0000   
         C         C         1.0       0.8001745237361396  0.42543223608511366           0.03681104477384589          1.0000   
         C         C         1.0       0.8081077791190557  0.4505487903928371  0.010888381958540583         1.0000   
         C         C         1.0       0.841760137269264   0.4650131178799593  0.9907181450437825 1.0000   
         C         C         1.0       0.8680566774570545  0.45245054643370236           0.9941125446024599 1.0000   
         C         C         1.0       0.8554516305514559  0.42183928729612535           0.01731999933399231          1.0000   
         C         C         1.0       0.8213185963937066  0.4087506240143425  0.03789130923897632          1.0000   
         C         C         1.0       0.9342516654424567  0.4540326359671653  0.9738778165133548 1.0000   
         C         C         1.0       0.9751022872094746  0.4737062699925513  0.9738036528917355 1.0000   
         C         C         1.0       0.9972249619288749  0.45984845971070804           0.961844202409425  1.0000   
         C         C         1.0       0.976314436981299   0.4219290439752745  0.9505759470234613 1.0000   
         C         C         1.0       0.9344003664035633  0.3992246892893067  0.9523685608902334 1.0000   
         C         C         1.0       0.9140431029586126  0.4151438867154277  0.9638966989353709 1.0000   
         C         C         1.0       0.8792731203219608  0.4594040126704657  0.916218813498042  1.0000   
         C         C         1.0       0.8805748279008959  0.4647827470963328  0.8812997101198585 1.0000   
         C         C         1.0       0.9139364913116145  0.49573934709191053           0.8661738756075311 1.0000   
         C         C         1.0       0.9481496579159786  0.5198359424580927  0.8850163466113088 1.0000   
         C         C         1.0       0.947074359533989   0.5145235309547075  0.9190505081058608 1.0000   
         C         C         1.0       0.9112287132071752  0.48410442789631275           0.9355126203456233 1.0000   
         H         H         1.0       0.005801457953908962          0.6859297877186151 0.993556744373286  1.0000   
         H         H         1.0       0.9820042185500213  0.620070781952533   0.08636490252575246          1.0000   
         H         H         1.0       0.9382821915191815  0.6428924103796293  0.10350939000805282          1.0000   
         H         H         1.0       0.9685847945938023  0.7069817989795849  0.013260521953320836         1.0000   
         H         H         1.0       0.05593859664991485           0.6809635156430781 0.08189067801909489          1.0000   
         H         H         1.0       0.09467719673291874           0.6808474506147006 0.13178469026770268          1.0000   
         H         H         1.0       0.1201876710618572  0.6098575643930649  0.07941314156842894          1.0000   
         H         H         1.0       0.0767092571257777  0.603345449169633   0.034783060476378136         1.0000   
         H         H         1.0       0.9615399527228848  0.6064196743004951  0.9831777919383584 1.0000   
         H         H         1.0       0.9121013081819318  0.5445131339777808  0.9663772030336654 1.0000   
         H         H         1.0       0.9503321114017338  0.49836229975246465           0.03936025959245204          1.0000   
         H         H         1.0       0.9995091730967276  0.5633528449152286  0.059419279709974404         1.0000   
         H         H         1.0       0.7895034196892264  0.4612830240283827  0.005544263850192355         1.0000   
         H         H         1.0       0.8491510817152854  0.4849797772391015  0.9699970975609528 1.0000   
         H         H         1.0       0.8774720518170681  0.41543607647724523           0.02346154294753755          1.0000   
         H         H         1.0       0.8164997756532246  0.3894031531220292  0.058787180903764336         1.0000   
         H         H         1.0       0.9938473130814327  0.5027487114295903  0.9790440910149893 1.0000   
         H         H         1.0       0.029522356714883236          0.48118489024875655          0.9615895815975413 1.0000   
         H         H         1.0       0.917127115230808   0.3690750513485674  0.9472429913784102 1.0000   
         H         H         1.0       0.8824926522445278  0.3983390156549443  0.9626729779023525 1.0000   
         H         H         1.0       0.8499504485947046  0.4346526441937418  0.9244099670697229 1.0000   
         H         H         1.0       0.8561790346098473  0.44312208955457677           0.8636946676184422 1.0000   
         H         H         1.0       0.97728643502866    0.5412436510119658  0.8740988827483327 1.0000   
         H         H         1.0       0.9755450870332023  0.5320794719635207  0.9333719464978948 1.0000   
         C         C         1.0       0.8609644732128339  0.6885749239598907  0.063026365978325  1.0000   
         C         C         1.0       0.8633161550729787  0.7213528908182196  0.07294489487034284          1.0000   
         C         C         1.0       0.8313337824257603  0.7178829820439064  0.09180413888792294          1.0000   
         C         C         1.0       0.7955499587618636  0.6814707603786316  0.09632180903087573          1.0000   
         C         C         1.0       0.792774201791953   0.6516771665538582  0.07781790779528186          1.0000   
         C         C         1.0       0.8242628552629375  0.654230656862387   0.06203989601141657          1.0000   
         H         H         1.0       0.889212716616273   0.7496350429122397  0.06879860862948206          1.0000   
         H         H         1.0       0.8373255173889774  0.7421701991137566  0.10550998366266087          1.0000   
         H         H         1.0       0.7653971396522004  0.6220282865708892  0.0804019305248116 1.0000   
         H         H         1.0       0.8227151074102557  0.6309318132988686  0.04898878024546516          1.0000   
         C         C         1.0       0.703279706600969   0.6471076377850508  0.07966151994418502          1.0000   
         C         C         1.0       0.7159416802168704  0.6519949993744635  0.11373985673557244          1.0000   
         C         C         1.0       0.6852199044732067  0.6376081150833759  0.13813603487296008          1.0000   
         C         C         1.0       0.6473199292901496  0.6245365434400718  0.12979443856351283          1.0000   
         C         C         1.0       0.6361475227795461  0.6221775480760805  0.09659803834473624          1.0000   
         C         C         1.0       0.6632832880745821  0.6329862844326501  0.07143306032968177          1.0000   
         C         C         1.0       0.7623412395131091  0.6730847718326215  0.12447449522659892          1.0000   
         C         C         1.0       0.7673803791118862  0.7101862276855108  0.14424976407119103          1.0000   
         C         C         1.0       0.7591949704110447  0.711234984734075   0.1788054796454729 1.0000   
         C         C         1.0       0.758424505557669   0.7409463147805442  0.19213620283456467          1.0000   
         C         C         1.0       0.768686542602411   0.7729033168414352  0.17437696464219737          1.0000   
         C         C         1.0       0.7725402555835095  0.770494411760118   0.1399440674979897 1.0000   
         C         C         1.0       0.7734583422801881  0.7413039873618936  0.12543204495977456          1.0000   
         C         C         1.0       0.7456304674187766  0.6109981353093294  0.1536674173578106 1.0000   
         C         C         1.0       0.7518160829971706  0.5911444992294121  0.17820066277612798          1.0000   
         C         C         1.0       0.7869894023387878  0.6091456229655019  0.19780316469885167          1.0000   
         C         C         1.0       0.8149632747786579  0.6479284186032277  0.1922042576097518 1.0000   
         C         C         1.0       0.8071241359592838  0.6682056540117195  0.16828855589392733          1.0000   
         C         C         1.0       0.7717218778804139  0.6503543991320511  0.15035775949187943          1.0000   
         C         C         1.0       0.7967105959708419  0.5853212612574035  0.22245312190235003          1.0000   
         C         C         1.0       0.6900081765310061  0.4960045601289796  0.27894603216528774          1.0000   
         C         C         1.0       0.7109596994271569  0.48611346523354954           0.25868151985146925          1.0000   
         C         C         1.0       0.7445702459658159  0.5124370137607605  0.24084610506381826          1.0000   
         C         C         1.0       0.7583704219868311  0.5524770760068515  0.24146792176974582          1.0000   
         C         C         1.0       0.7345124559785492  0.5624519132415629  0.2607851250346595 1.0000   
         C         C         1.0       0.7019983113085351  0.5339205929560851  0.279425136302204  1.0000   
         C         C         1.0       0.8275760004703778  0.6083400396198517  0.25382354021640763          1.0000   
         C         C         1.0       0.8329331889927002  0.6422214622831995  0.26670542712152934          1.0000   
         C         C         1.0       0.8676010909282188  0.6686858586060371  0.2810634226873974 1.0000   
         C         C         1.0       0.8932772935071153  0.6586070705716293  0.2915870367038934 1.0000   
         C         C         1.0       0.8831212163995418  0.6216412294254782  0.2878563996133949 1.0000   
         C         C         1.0       0.8495592217162603  0.5958784498790298  0.2683531262640453 1.0000   
         C         C         1.0       0.8568436124611338  0.5958846538720266  0.1853622542181755 1.0000   
         C         C         1.0       0.8733525078326014  0.590306827344524   0.1563314300379421 1.0000   
         C         C         1.0       0.849109825550938   0.5594855967282899  0.13501321822738657          1.0000   
         C         C         1.0       0.8081828013868583  0.5359800611944113  0.14142935241966934          1.0000   
         C         C         1.0       0.7918804494322718  0.5439452082497093  0.17036781084883942          1.0000   
         C         C         1.0       0.8151449195632475  0.5731209133154354  0.1918860847866577 1.0000   
         H         H         1.0       0.7247498632910679  0.6553746243104093  0.05962969043715627          1.0000   
         H         H         1.0       0.6928839657574442  0.6394323838125842  0.16319800328534242          1.0000   
         H         H         1.0       0.6239125921392683  0.6134808573625705  0.14848294190437517          1.0000   
         H         H         1.0       0.6536569669000858  0.6274396974112388  0.045051662434166584         1.0000   
         H         H         1.0       0.7511412220184036  0.68647428703176    0.1935541869873024 1.0000   
         H         H         1.0       0.7551964368386255  0.7420238838975134  0.2195604780813285 1.0000   
         H         H         1.0       0.7774153793179371  0.7937851055989816  0.12278094014227348          1.0000   
         H         H         1.0       0.7764392360027322  0.7406138033369103  0.09841006351585846          1.0000   
         H         H         1.0       0.7232057089665633  0.594072105948436   0.13489226059286533          1.0000   
         H         H         1.0       0.7302354817852786  0.5587959180102704  0.179809334853956  1.0000   
         H         H         1.0       0.8420238030399156  0.6605113427735404  0.20639485289457155          1.0000   
         H         H         1.0       0.8297972395607244  0.6988052949729981  0.16452536325853476          1.0000   
         H         H         1.0       0.6999270820682089  0.45576649563427873           0.2598306467995222 1.0000   
         H         H         1.0       0.7622917357316046  0.5035059737964037  0.22711596031014392          1.0000   
         H         H         1.0       0.7453858988164984  0.5917182881096608  0.2658067942061715 1.0000   
         H         H         1.0       0.6840216824582982  0.5416568224445683  0.2916592852696515 1.0000   
         H         H         1.0       0.8121273772961901  0.6478419209148834  0.25756869751797756          1.0000   
         H         H         1.0       0.8756457313319407  0.6989736238635144  0.28505970564090843          1.0000   
         H         H         1.0       0.8999634948854107  0.6136329833018104  0.3023266919053482 1.0000   
         H         H         1.0       0.8432482502934715  0.567318896711734   0.2619642557492153 1.0000   
         H         H         1.0       0.8774312513207333  0.619599555412032   0.20117637249945516          1.0000   
         H         H         1.0       0.9054578473559801  0.6084232271742303  0.15069308574360377          1.0000   
         H         H         1.0       0.7873649136960149  0.5099714288757274  0.1272639117588896 1.0000   
         H         H         1.0       0.7600102252774974  0.5253871171300831  0.17477636172590755          1.0000   
         C         C         1.0       0.34597938140295703           0.5778715189294115 0.8097565682426915 1.0000   
         C         C         1.0       0.35992926505819317           0.561898159475399  0.7868306768312564 1.0000   
         C         C         1.0       0.3660338834004683  0.5718578480002324  0.7544392927633368 1.0000   
         C         C         1.0       0.35144908500292593           0.5920106640690642 0.7419628951332394 1.0000   
         C         C         1.0       0.33719353836845456           0.6077773639650843 0.76406843716493   1.0000   
         C         C         1.0       0.33615108551288403           0.6019959527909595 0.7973762476264793 1.0000   
         H         H         1.0       0.3705129505047347  0.5456503923904686  0.7971074881702517 1.0000   
         H         H         1.0       0.3802642146471192  0.561760485173772   0.7380553386674498 1.0000   
         H         H         1.0       0.3185499611122063  0.6193043136405199  0.7561729356599308 1.0000   
         H         H         1.0       0.32463508354962495           0.614189444633071  0.8139300914766676 1.0000   
         C         C         1.0       0.27262413495229276           0.5618290027874283 0.7003811430002204 1.0000   
         C         C         1.0       0.30947196881983075           0.5953728740585802 0.6911016349365646 1.0000   
         C         C         1.0       0.3071083690512796  0.619721036509634   0.6706053459820882 1.0000   
         C         C         1.0       0.2712992242199883  0.6180007202863977  0.669036632664314  1.0000   
         C         C         1.0       0.23638958278465436           0.5876337905064968 0.6824366999093884 1.0000   
         C         C         1.0       0.236957488401663   0.5594017153421998  0.6979303040103808 1.0000   
         C         C         1.0       0.34849341076424967           0.5967454807798661 0.7024443209266545 1.0000   
         C         C         1.0       0.34368609736483474           0.5643267971277713 0.6755196769607905 1.0000   
         C         C         1.0       0.35930945944998627           0.5743064582459322 0.6425396912343472 1.0000   
         C         C         1.0       0.36106760463571136           0.5475028090624127 0.6229876464994583 1.0000   
         C         C         1.0       0.3460522989623971  0.5117875865358308  0.6338804895384983 1.0000   
         C         C         1.0       0.3254042822457096  0.4999789398288361  0.6635242298380922 1.0000   
         C         C         1.0       0.3257825117877398  0.5254869404237648  0.6850713328340792 1.0000   
         C         C         1.0       0.3997464245088566  0.6718322174682094  0.6955523000507542 1.0000   
         C         C         1.0       0.4361565850922146  0.7020750478908201  0.6821801967473665 1.0000   
         C         C         1.0       0.4656634455413646  0.6979274630792126  0.6708962068630397 1.0000   
         C         C         1.0       0.4627169104001469  0.6641336342875985  0.6807818866826763 1.0000   
         C         C         1.0       0.426379021493268   0.6342312771499177  0.6923410182304158 1.0000   
         C         C         1.0       0.392979635332935   0.6360198541405647  0.6971508873551878 1.0000   
         C         C         1.0       0.5022481712932226  0.726792456208733   0.6466506488128    1.0000   
         C         C         1.0       0.4712486364575435  0.7773900795972968  0.5667818230673287 1.0000   
         C         C         1.0       0.509503808325487   0.796533477996762   0.5802525470338353 1.0000   
         C         C         1.0       0.519819690742877   0.7809861128973049  0.6045874729122892 1.0000   
         C         C         1.0       0.48963145678070574           0.7460020923862669 0.6196585014740523 1.0000   
         C         C         1.0       0.4516258979580499  0.7272358517662867  0.6057108977436144 1.0000   
         C         C         1.0       0.44246737769856537           0.7425594229107279 0.5789173457230121 1.0000   
         C         C         1.0       0.5189075058675363  0.7084509739497366  0.6195888651461816 1.0000   
         C         C         1.0       0.5586641543769182  0.7264938095363027  0.6078721181079499 1.0000   
         C         C         1.0       0.5676433012297761  0.7074222948671055  0.5841384972105697 1.0000   
         C         C         1.0       0.5379417188609965  0.6730377955299862  0.5694223094803375 1.0000   
         C         C         1.0       0.49809914130062544           0.655777155710451  0.5792592573199231 1.0000   
         C         C         1.0       0.4894759748368765  0.672847320740905   0.6053011957597867 1.0000   
         C         C         1.0       0.5667156283605193  0.7622002441279087  0.683706857661965  1.0000   
         C         C         1.0       0.5999170423272072  0.7986844206832009  0.692332826518478  1.0000   
         C         C         1.0       0.5989021160857101  0.8301182141152718  0.695610864805366  1.0000   
         C         C         1.0       0.5624313113036847  0.8255572587260038  0.6926710592174891 1.0000   
         C         C         1.0       0.5275520604981171  0.7905728546118969  0.6828178429628619 1.0000   
         C         C         1.0       0.5311376393099337  0.7593644236708765  0.6742545328852848 1.0000   
         H         H         1.0       0.27430658130121444           0.5415269335793744 0.7139165168738023 1.0000   
         H         H         1.0       0.3345033882494596  0.6433272106720617  0.6611228356761336 1.0000   
         H         H         1.0       0.2668962831160848  0.6362078159257797  0.6553616368187565 1.0000   
         H         H         1.0       0.21003077267627923           0.5328660865618545 0.7117475846301088 1.0000   
         H         H         1.0       0.37473649941448434           0.601955516687143  0.6317862917300585 1.0000   
         H         H         1.0       0.3798419052321542  0.5579854646513992  0.5982392990642131 1.0000   
         H         H         1.0       0.30711607015069453           0.4708214462261593 0.6717801381062335 1.0000   
         H         H         1.0       0.3158414293011691  0.5172214602720524  0.7115515421043478 1.0000   
         H         H         1.0       0.38018586307108837           0.6809240672568706 0.7001825323545268 1.0000   
         H         H         1.0       0.4356982719156096  0.7277525656681509  0.6800668892725764 1.0000   
         H         H         1.0       0.48782080732413274           0.6609481448631855 0.6776283487203559 1.0000   
         H         H         1.0       0.4242336072419434  0.6087873429961639  0.6987296666269793 1.0000   
         H         H         1.0       0.5309309651520439  0.8262953224105087  0.5739444652657101 1.0000   
         H         H         1.0       0.5521656690795477  0.7943437296622053  0.6099804698704654 1.0000   
         H         H         1.0       0.42791250003364706           0.6986761591227906 0.6148626902912714 1.0000   
         H         H         1.0       0.4099864740853098  0.7262077175182673  0.5711296329719099 1.0000   
         H         H         1.0       0.5823639040537452  0.7535106225257062  0.6191087812299042 1.0000   
         H         H         1.0       0.5981793818481123  0.720229102776938   0.578987247961439  1.0000   
         H         H         1.0       0.47532762055779476           0.6293229263807277 0.5660496854104197 1.0000   
         H         H         1.0       0.4572964302976833  0.657845583263181   0.6108803114465979 1.0000   
         H         H         1.0       0.5694531922757101  0.7381461785275288  0.6778960128668743 1.0000   
         H         H         1.0       0.6276051267016189  0.8012421193229823  0.6954441021601845 1.0000   
         H         H         1.0       0.5617101052423091  0.8516155734683306  0.6994485049325517 1.0000   
         H         H         1.0       0.49938930127499215           0.7877917840508604 0.677935022395103  1.0000   
         C         C         1.0       0.1913443515803804  0.7058858120825792  0.87615993718708   1.0000   
         C         C         1.0       0.17897343393699755           0.6670538886278871 0.8769743031855172 1.0000   
         C         C         1.0       0.2046886035730711  0.6567757341203608  0.865707059326723  1.0000   
         C         C         1.0       0.24007859753633407           0.683469577847934  0.8503047732694006 1.0000   
         C         C         1.0       0.24840201039406293           0.719061601311003  0.8430244467729207 1.0000   
         C         C         1.0       0.22569710402356596           0.731602784404493  0.8570325988753426 1.0000   
         H         H         1.0       0.1530848657437981  0.6451192804660115  0.8908521483279291 1.0000   
         H         H         1.0       0.19994401628283118           0.6312104459339725 0.8740290665301262 1.0000   
         H         H         1.0       0.27473198912998215           0.7392601007694317 0.8282816333956118 1.0000   
         H         H         1.0       0.2368294089647463  0.7611775218874411  0.8556572741453259 1.0000   
         C         C         1.0       0.3395019417154663  0.7450433385968799  0.8543983812795357 1.0000   
         C         C         1.0       0.32160989403372825           0.7087630273797819 0.838623985907468  1.0000   
         C         C         1.0       0.3475188933671158  0.7000125230069396  0.8224611165746609 1.0000   
         C         C         1.0       0.386998515588966   0.727082996997569   0.8187394369024996 1.0000   
         C         C         1.0       0.4028699430304918  0.7644048741189706  0.8283250247614486 1.0000   
         C         C         1.0       0.38048478414500003           0.771766313872774  0.8494476415032518 1.0000   
         C         C         1.0       0.2736699315921991  0.6747461728435944  0.8445383948313361 1.0000   
         C         C         1.0       0.2566144962357557  0.6499933898362609  0.8108539613126744 1.0000   
         C         C         1.0       0.2309353301159449  0.6097492918465639  0.8100856937417937 1.0000   
         C         C         1.0       0.20981873530524628           0.5898159639983016 0.7817261039115497 1.0000   
         C         C         1.0       0.21245060915930908           0.6092701909506419 0.752793704606037  1.0000   
         C         C         1.0       0.24216363093292761           0.6485019046952448 0.7512489725706151 1.0000   
         C         C         1.0       0.2637547611118688  0.6690454288582541  0.7795106952721452 1.0000   
         C         C         1.0       0.279340913732632   0.6703998488529564  0.9078158392177248 1.0000   
         C         C         1.0       0.2868070111572952  0.6586009208561583  0.9365872310286244 1.0000   
         C         C         1.0       0.2961113428278692  0.6304972344241105  0.9377297284146019 1.0000   
         C         C         1.0       0.29570352191736626           0.6144266284127493 0.9061176725757336 1.0000   
         C         C         1.0       0.28293099579941017           0.6238119268403609 0.8768939927346802 1.0000   
         C         C         1.0       0.27717535717069797           0.6539864774259286 0.8776948811765701 1.0000   
         C         C         1.0       0.311788317379122   0.6249335406202474  0.9727589840346887 1.0000   
         C         C         1.0       0.43722101391150653           0.7154100559482703 0.9576216197267344 1.0000   
         C         C         1.0       0.41299305649512336           0.7257199953884881 0.9732068051382047 1.0000   
         C         C         1.0       0.3732641570694382  0.6980749415341321  0.9787480899135078 1.0000   
         C         C         1.0       0.357633635717447   0.6604316743701936  0.9702379348906258 1.0000   
         C         C         1.0       0.38294417114683255           0.6522774615276328 0.9549486068827187 1.0000   
         C         C         1.0       0.4216437389810342  0.6798937221951452  0.9453342321429192 1.0000   
         C         C         1.0       0.30868334784535945           0.5861282530180083 0.9840916841291775 1.0000   
         C         C         1.0       0.29519834753628654           0.553236327601984  0.963542412145174  1.0000   
         C         C         1.0       0.306054076758879   0.527512234109648   0.9718807391970775 1.0000   
         C         C         1.0       0.32962589424967287           0.5335104192876332 0.9992912284673188 1.0000   
         C         C         1.0       0.3384795992040984  0.5632948666374096  0.020588714187787627         1.0000   
         C         C         1.0       0.32962881135720057           0.5895535690035556 0.013218301283733025         1.0000   
         C         C         1.0       0.29547337898026027           0.6468038508759251 0.029783313308772152         1.0000   
         C         C         1.0       0.27094401809531415           0.6378859144159087 0.05811932864850666          1.0000   
         C         C         1.0       0.2320689229287295  0.6092418053629882  0.055717881960868354         1.0000   
         C         C         1.0       0.21473777411049147           0.5878491468569463 0.025933511125941333         1.0000   
         C         C         1.0       0.2397138632147071  0.5965197906966413  0.9992490743049421 1.0000   
         C         C         1.0       0.2814431731312954  0.6248086970143566  0.9997694542843409 1.0000   
         H         H         1.0       0.32108047477728013           0.7492777823585424 0.8715801886249301 1.0000   
         H         H         1.0       0.3353366269247377  0.6706840196668635  0.8123996323268838 1.0000   
         H         H         1.0       0.4010169361887699  0.7179312880413065  0.8013216604831815 1.0000   
         H         H         1.0       0.3908223386642551  0.7983288804646554  0.8626478494784384 1.0000   
         H         H         1.0       0.22303333302523998           0.5947546062875564 0.8338025701923651 1.0000   
         H         H         1.0       0.18961196281603798           0.5595308054378362 0.7838463550694648 1.0000   
         H         H         1.0       0.24158322628388865           0.6652424593181814 0.7303977356702143 1.0000   
         H         H         1.0       0.2807889480492054  0.7008297307030533  0.7790668842523536 1.0000   
         H         H         1.0       0.27700830552877576           0.6955135363954438 0.9090984170555011 1.0000   
         H         H         1.0       0.28766849018635465           0.67379591227005   0.9590123288887605 1.0000   
         H         H         1.0       0.30621503482245654           0.595547632076437  0.9054982221819222 1.0000   
         H         H         1.0       0.2828957927484441  0.6127012103468746  0.8514179512847988 1.0000   
         H         H         1.0       0.4276911916377388  0.7554887422909534  0.982644316462744  1.0000   
         H         H         1.0       0.35533612962800465           0.7082319110762555 0.9891099296949993 1.0000   
         H         H         1.0       0.36849360993292213           0.6265282388457174 0.9412994091436593 1.0000   
         H         H         1.0       0.4391650158006655  0.6726069405711355  0.9312345680868234 1.0000   
         H         H         1.0       0.28247922208305254           0.5490342019644506 0.93883387016456   1.0000   
         H         H         1.0       0.30571751105565514           0.5079952883957374 0.954100379340391  1.0000   
         H         H         1.0       0.35949472297437024           0.5714908076779823 0.04086042128293399          1.0000   
         H         H         1.0       0.3457094206350359  0.6135221228756594  0.0318231575162502 1.0000   
         H         H         1.0       0.32763118760392734           0.6644496782160836 0.03138702421432504          1.0000   
         H         H         1.0       0.28245986142471413           0.6526740501524062 0.08265000620216156          1.0000   
         H         H         1.0       0.183789212687097   0.5618374628018852  0.02469496993578768          1.0000   
         H         H         1.0       0.22825376171778558           0.5763697023424631 0.9789941267191794 1.0000   
         C         C         1.0       0.6739864504553594  0.09308574367612397           0.02228737646667822          1.0000   
         C         C         1.0       0.647918484975323   0.07676940621326467           0.9948983631985013 1.0000   
         C         C         1.0       0.6626127241769089  0.0743594750933345  0.9635010935082838 1.0000   
         C         C         1.0       0.7026047134734916  0.08493829156579968           0.9596941296317076 1.0000   
         C         C         1.0       0.7289779998610155  0.10129124972723642           0.9880389604962571 1.0000   
         C         C         1.0       0.7136888054285712  0.1036122526928629  0.018652238678948496         1.0000   
         H         H         1.0       0.6168597277904703  0.06787599657272557           0.9994197910581225 1.0000   
         H         H         1.0       0.6409083244794237  0.059600843913518935         0.9431970048106137 1.0000   
         H         H         1.0       0.7589334123994184  0.10830453112757114           0.9890645400114407 1.0000   
         H         H         1.0       0.7310065316192806  0.11622988015486678           0.04167419831570496          1.0000   
         C         C         1.0       0.7924060368725339  0.13040691407117055           0.9222361402752359 1.0000   
         C         C         1.0       0.7657725621098196  0.09073778237922608           0.9259555998403072 1.0000   
         C         C         1.0       0.7804522775079191  0.06628566124512791           0.9216636389298432 1.0000   
         C         C         1.0       0.8193884451041751  0.08209508460829573           0.9138142675600088 1.0000   
         C         C         1.0       0.8466635378756919  0.12169217589831258           0.910873612495287  1.0000   
         C         C         1.0       0.8324762735523966  0.14452575915615914           0.916889932033015  1.0000   
         C         C         1.0       0.7161927851492471  0.07145049121217206           0.9269628002750477 1.0000   
         C         C         1.0       0.7086293002298437  0.08725200220491873           0.8919561877833476 1.0000   
         C         C         1.0       0.724683850013811   0.08183377896528965           0.8627063712416677 1.0000   
         C         C         1.0       0.7237549800152963  0.09570015329018929           0.8306992710434464 1.0000   
         C         C         1.0       0.7070852842152591  0.1159204882152889  0.8288664152429356 1.0000   
         C         C         1.0       0.6905527254295667  0.12226018756903939           0.8560049380289336 1.0000   
         C         C         1.0       0.692329492045572   0.10964660290338989           0.8869277361385594 1.0000   
         C         C         1.0       0.682774077277222   0.007179249014242162         0.9587341109392303 1.0000   
         C         C         1.0       0.6477684167831352  0.9705426484300285  0.9639286250334483 1.0000   
         C         C         1.0       0.6234457013549637  0.9482955715274362  0.9369555155556923 1.0000   
         C         C         1.0       0.6363562144831644  0.9624434383058736  0.904834272761274  1.0000   
         C         C         1.0       0.6682402047817922  0.0014367561630592718        0.8998129612881243 1.0000   
         C         C         1.0       0.6909623122092928  0.025069589169038453         0.9276279916292169 1.0000   
         C         C         1.0       0.5767266392074267  0.9138290441014871  0.9441627919339064 1.0000   
         C         C         1.0       0.5574383912391805  0.8536923203742655  0.038686161430603994         1.0000   
         C         C         1.0       0.5310461794565202  0.8642293490048548  0.030675332141093303         1.0000   
         C         C         1.0       0.5391557795166262  0.8861514283826335  0.0026561800425635163        1.0000   
         C         C         1.0       0.5714102022239492  0.8948758509884217  0.9807543358697411 1.0000   
         C         C         1.0       0.595462876089306   0.8816381329675886  0.9893343264037546 1.0000   
         C         C         1.0       0.5895226911731607  0.8632107004168306  0.01849028710131262          1.0000   
         C         C         1.0       0.5541328469316007  0.874561574486924   0.9217905095618627 1.0000   
         C         C         1.0       0.5772069636699986  0.8598617483201636  0.9108233107450273 1.0000   
         C         C         1.0       0.5588006428299505  0.8215909984552336  0.9046983136323171 1.0000   
         C         C         1.0       0.5182283879494956  0.7968594782973868  0.9098663813862528 1.0000   
         C         C         1.0       0.4954731440319984  0.8129885060252255  0.9133579736796056 1.0000   
         C         C         1.0       0.5134028288557986  0.8500202256948759  0.9245401763078056 1.0000   
         C         C         1.0       0.5396050906247906  0.9396858289199704  0.909556818781287  1.0000   
         C         C         1.0       0.5284675869934032  0.9639632634925114  0.9036531321375323 1.0000   
         C         C         1.0       0.5322292377384941  0.988622407868799   0.929576858160717  1.0000   
         C         C         1.0       0.5474725043835751  0.9880587090194218  0.9606024094537713 1.0000   
         C         C         1.0       0.5602234051680294  0.9629600449138962  0.9655593078015123 1.0000   
         C         C         1.0       0.5564839684127649  0.9377450948109932  0.9397941493328542 1.0000   
         H         H         1.0       0.7827248109215892  0.14938536392953788           0.9211764007576472 1.0000   
         H         H         1.0       0.7610903219452344  0.03439368637260132           0.9218355604674441 1.0000   
         H         H         1.0       0.8280533198061232  0.06285934456132214           0.9080987523376305 1.0000   
         H         H         1.0       0.8478008768639804  0.17321267993487943           0.9055523848387305 1.0000   
         H         H         1.0       0.739162635769293   0.06507364641148095           0.8634523536005994 1.0000   
         H         H         1.0       0.7375023353379062  0.09155398921072422           0.8073684622898778 1.0000   
         H         H         1.0       0.6722391896431362  0.13451334676999133           0.8553721883490761 1.0000   
         H         H         1.0       0.6811820616965976  0.11737730418567667           0.9083361911893376 1.0000   
         H         H         1.0       0.6995609506806884  0.02404428488183097           0.9806508037185101 1.0000   
         H         H         1.0       0.6372553215127433  0.9609831029709108  0.9893933009639179 1.0000   
         H         H         1.0       0.6162825186116193  0.9467029473984544  0.8854689505912746 1.0000   
         H         H         1.0       0.6681056244549749  0.012505187785249783         0.8744737133568146 1.0000   
         H         H         1.0       0.5029435194022438  0.853137422893734   0.043883734685287834         1.0000   
         H         H         1.0       0.5186983580894701  0.8937256709310353  0.996264129486487  1.0000   
         H         H         1.0       0.6185173393378899  0.8862733216403033  0.970783490914722  1.0000   
         H         H         1.0       0.608669662299091   0.8551482327463057  0.028645659797056355         1.0000   
         H         H         1.0       0.6104419018651199  0.8784586777252406  0.912834110897108  1.0000   
         H         H         1.0       0.5761476762507506  0.8099102849994402  0.9012454438042824 1.0000   
         H         H         1.0       0.46357944165794185           0.7965808916525567 0.9162823858130836 1.0000   
         H         H         1.0       0.4927222319567943  0.8587071469296556  0.9329299526826056 1.0000   
         H         H         1.0       0.5369831667031364  0.9213165034018485  0.8880730540822377 1.0000   
         H         H         1.0       0.5164040918144002  0.9649693337568125  0.8792678614252423 1.0000   
         H         H         1.0       0.5532799648073109  0.008724087291957838         0.9807896850369505 1.0000   
         H         H         1.0       0.5741156286921976  0.9641717649557072  0.9896222881258696 1.0000   
         C         C         1.0       0.4788904882444068  0.8650124188870135  0.8053640329359035 1.0000   
         C         C         1.0       0.4520026723660023  0.8761081879380473  0.8044646145028908 1.0000   
         C         C         1.0       0.4623534922065458  0.9091315581106841  0.7885931736752695 1.0000   
         C         C         1.0       0.49889076096314056           0.9317172090703774 0.7728223488955223 1.0000   
         C         C         1.0       0.5240098844979963  0.9180740393400433  0.7704546484595249 1.0000   
         C         C         1.0       0.5146597820884129  0.886701728540629   0.7886298945431255 1.0000   
         H         H         1.0       0.4232160010398392  0.8606316366913698  0.8191519216996538 1.0000   
         H         H         1.0       0.44305208765139886           0.9193839848381964 0.7909193216997692 1.0000   
         H         H         1.0       0.5501067916310346  0.9317925791672097  0.7548691719009034 1.0000   
         H         H         1.0       0.532532908229823   0.8744099155659384  0.7897305774300584 1.0000   
         C         C         1.0       0.5816579577644216  0.008293655083723372         0.7910137282721131 1.0000   
         C         C         1.0       0.5570925798150502  0.008963541252544838         0.7654714932673148 1.0000   
         C         C         1.0       0.5732513295437502  0.04146782195510457           0.7459078848921663 1.0000   
         C         C         1.0       0.6149315512641019  0.07100612460507105           0.7475244135316166 1.0000   
         C         C         1.0       0.6386924188470875  0.06780038348227047           0.7689382271755894 1.0000   
         C         C         1.0       0.6219436771977668  0.036525869117074894         0.7900128434597159 1.0000   
         C         C         1.0       0.5113461104099013  0.9714880470438778  0.7554488532559155 1.0000   
         C         C         1.0       0.4859070111188674  0.9901700358354767  0.7625294768230293 1.0000   
         C         C         1.0       0.4766011287616563  0.0073976121283763074        0.7369329662391437 1.0000   
         C         C         1.0       0.45057105851115653           0.016495960634541618         0.7447132928683369 1.0000   
         C         C         1.0       0.43517696401679923           0.013140846190269562         0.7764062327274205 1.0000   
         C         C         1.0       0.445480264777366   0.9985375435640143  0.801763122807094  1.0000   
         C         C         1.0       0.4751234289607614  0.9906087932793282  0.7956005338446311 1.0000   
         C         C         1.0       0.5400697026207735  0.9701104007825407  0.6957715117277007 1.0000   
         C         C         1.0       0.536420558165363   0.9734637292675942  0.6615847778370748 1.0000   
         C         C         1.0       0.5006728178042605  0.9622967856366464  0.6463181620995346 1.0000   
         C         C         1.0       0.46709372479740924           0.9417508300349383 0.6662554121378174 1.0000   
         C         C         1.0       0.4690098911969924  0.9395001774369206  0.7015372886709744 1.0000   
         C         C         1.0       0.5070901907486312  0.9597272947641166  0.716913672473014  1.0000   
         C         C         1.0       0.4963708397268684  0.9708927830144063  0.6065038429790616 1.0000   
         C         C         1.0       0.6129328156321378  0.07100504446002942           0.5743387268456452 1.0000   
         C         C         1.0       0.5936806647418388  0.0385254277684155  0.5543490889755021 1.0000   
         C         C         1.0       0.556540125092104   0.0066209482229164784        0.5630516339420132 1.0000   
         C         C         1.0       0.5386799550236029  0.0058885410608944255        0.5939545359194319 1.0000   
         C         C         1.0       0.5563496326678558  0.04058239107646355           0.6134283997410873 1.0000   
         C         C         1.0       0.5918124083065617  0.07252108020157233           0.601799979733512  1.0000   
         C         C         1.0       0.4657076660551149  0.9848468671386637  0.5988321442568474 1.0000   
         C         C         1.0       0.44212428567674744           0.988106790304497  0.6230090388658879 1.0000   
         C         C         1.0       0.4166045513066965  0.00019334345237420614       0.615362063710526  1.0000   
         C         C         1.0       0.41272085849839535           0.005899415823719556         0.5823121896803305 1.0000   
         C         C         1.0       0.4372093618173233  0.005645579632322262         0.5578817745763069 1.0000   
         C         C         1.0       0.46176697245168963           0.9920464892163309 0.5660355176679306 1.0000   
         C         C         1.0       0.4399847786443215  0.9041821341141212  0.5831362469399024 1.0000   
         C         C         1.0       0.4258905546260393  0.867912335204011   0.5694095507812108 1.0000   
         C         C         1.0       0.45162607074950367           0.8562296480697936 0.5663746099280446 1.0000   
         C         C         1.0       0.491450672713581   0.8812282546283126  0.5764730702608607 1.0000   
         C         C         1.0       0.5063800792868149  0.9180736977814411  0.5839559431973897 1.0000   
         C         C         1.0       0.4812183555592812  0.9305653616164304  0.5904141197158694 1.0000   
         H         H         1.0       0.5697234835405363  0.9831544354237389  0.8061696339101702 1.0000   
         H         H         1.0       0.5545103272228623  0.045082437821568844         0.7304840411706861 1.0000   
         H         H         1.0       0.627899611218931   0.09411204856824315           0.7283813909785873 1.0000   
         H         H         1.0       0.6431541823143467  0.033909491050234886         0.8041475420081303 1.0000   
         H         H         1.0       0.49000715213052587           0.015803899510925756         0.7116348650418893 1.0000   
         H         H         1.0       0.44619114222222367           0.030841605456428  0.7244752390334741 1.0000   
         H         H         1.0       0.43489437232020345           0.9983352322892771 0.8268678963268354 1.0000   
         H         H         1.0       0.4884447450890393  0.9828533312775677  0.814039704414087  1.0000   
         H         H         1.0       0.5692165204275538  0.9766692454436462  0.7061067041914942 1.0000   
         H         H         1.0       0.5625059788559754  0.9845723244962463  0.6458619764378537 1.0000   
         H         H         1.0       0.43695682790359014           0.9256203178687701 0.6546189583532553 1.0000   
         H         H         1.0       0.43816812133760624           0.9236508018919788 0.7133864559002675 1.0000   
         H         H         1.0       0.6078375917031152  0.04154098693978492           0.5303414883649484 1.0000   
         H         H         1.0       0.5371692043534437  0.9789223124422312  0.5480674872274849 1.0000   
         H         H         1.0       0.54132927599802    0.042298664181229295         0.6346459369081997 1.0000   
         H         H         1.0       0.6034503181911495  0.09918428170226234           0.6157964590815506 1.0000   
         H         H         1.0       0.44280020438862305           0.9844856842597541 0.6495808509433253 1.0000   
         H         H         1.0       0.3979141366385156  0.002156421921017948         0.6344673413027897 1.0000   
         H         H         1.0       0.43710397672301265           0.014326333828320603         0.5314908884498398 1.0000   
         H         H         1.0       0.48013879730026165           0.9925350152206288 0.5465595714401794 1.0000   
         H         H         1.0       0.41762984244843837           0.9134205265708336 0.5883123998304309 1.0000   
         H         H         1.0       0.3934432077997918  0.8522985093445753  0.5633643710631674 1.0000   
         H         H         1.0       0.5103937319532837  0.8711567070976529  0.5729084316928962 1.0000   
         H         H         1.0       0.5365624841385203  0.9387831852600912  0.5917417174742249 1.0000   
         C         C         1.0       0.5721205087296163  0.5988122035907708  0.8135272692000486 1.0000   
         C         C         1.0       0.597849025118335   0.6266039758029284  0.8365859111449879 1.0000   
         C         C         1.0       0.5956040910153819  0.6571480445363717  0.8432484754992959 1.0000   
         C         C         1.0       0.5668478325489211  0.6619375198906156  0.8293308747473279 1.0000   
         C         C         1.0       0.5474014408081399  0.6388683570634806  0.801131253739058  1.0000   
         C         C         1.0       0.5486219584182368  0.6069472808931231  0.7935205957887269 1.0000   
         H         H         1.0       0.6219337255650298  0.6262906404661905  0.8512901108335453 1.0000   
         H         H         1.0       0.6164758468944563  0.6793460063943804  0.8616817985663557 1.0000   
         H         H         1.0       0.5235892309492622  0.640427392010144   0.7914966139443854 1.0000   
         H         H         1.0       0.5244515245787955  0.5859240584106388  0.7783532131231303 1.0000   
         C         C         1.0       0.4813001751104583  0.68337609223036    0.8541652734471142 1.0000   
         C         C         1.0       0.49979609958984805           0.6635372492460606 0.8483269569452598 1.0000   
         C         C         1.0       0.4759530768592297  0.6228761663381948  0.8498012103760416 1.0000   
         C         C         1.0       0.43528111566541955           0.6032993647782028 0.8545152130529835 1.0000   
         C         C         1.0       0.4158807046241837  0.6218697007310617  0.8611984616187407 1.0000   
         C         C         1.0       0.43888489729139574           0.6618046272906016 0.856877645527762  1.0000   
         C         C         1.0       0.54754840004052    0.6838280881813041  0.8485894221485338 1.0000   
         C         C         1.0       0.5728161241238223  0.7262196789778057  0.8315432067653324 1.0000   
         C         C         1.0       0.6124740181401228  0.7550289123238565  0.8394912629708782 1.0000   
         C         C         1.0       0.6296618044192797  0.7938221790792652  0.828741554942526  1.0000   
         C         C         1.0       0.6097425528772241  0.8010003247069085  0.8059668412418206 1.0000   
         C         C         1.0       0.571930093970037   0.7720862381724458  0.7962740226034483 1.0000   
         C         C         1.0       0.5548193711327264  0.7359843958718985  0.8070442155738967 1.0000   
         C         C         1.0       0.5444728668769225  0.6538906761209067  0.9045842016334307 1.0000   
         C         C         1.0       0.5378120242076714  0.6499762155312093  0.938775979180958  1.0000   
         C         C         1.0       0.5447009812844933  0.6784214378395679  0.9603409882306468 1.0000   
         C         C         1.0       0.5552603927056664  0.7117281842887662  0.9440056811543573 1.0000   
         C         C         1.0       0.5606698811741435  0.7167100555966497  0.9086129402284885 1.0000   
         C         C         1.0       0.552403930899917   0.685833369236843   0.8877177418331194 1.0000   
         C         C         1.0       0.5338470227749589  0.6700205569757517  0.0004406040868620842        1.0000   
         C         C         1.0       0.42081352044899684           0.555545267141252  0.9938636798321002 1.0000   
         C         C         1.0       0.45248388905650144           0.5605015218672857 0.013208053270952647         1.0000   
         C         C         1.0       0.4865435572245106  0.5963775098822133  0.019029734387737474         1.0000   
         C         C         1.0       0.49078382898401013           0.6273218693137077 0.0017141826516593461        1.0000   
         C         C         1.0       0.45886967357331654           0.619863401014577  0.9808735940921421 1.0000   
         C         C         1.0       0.42304287783752487           0.5843950748565659 0.9764281843806468 1.0000   
         C         C         1.0       0.5273643708681914  0.7008812103492078  0.01607757834599899          1.0000   
         C         C         1.0       0.5580939067984317  0.7393489249912004  0.015399978070764542         1.0000   
         C         C         1.0       0.5569423163034553  0.7684354975063616  0.030589758268647627         1.0000   
         C         C         1.0       0.5223847558717392  0.7588432371647837  0.04873518763429008          1.0000   
         C         C         1.0       0.49039459386682355           0.720772419041704  0.04878256894152733          1.0000   
         C         C         1.0       0.49254478903635773           0.6927105518074369 0.03488463166038702          1.0000   
         C         C         1.0       0.592965521552251   0.6938982122326683  0.045015092856373506         1.0000   
         C         C         1.0       0.6327026113421063  0.7070655179914113  0.0506826373724365 1.0000   
         C         C         1.0       0.6531277675051027  0.6973590320963089  0.029706954153279286         1.0000   
         C         C         1.0       0.6307953060655781  0.6707389350792792  0.005284191625786638         1.0000   
         C         C         1.0       0.5887523112822144  0.6536995614620418  0.001439325857911733         1.0000   
         C         C         1.0       0.5719659742717833  0.6714691598828093  0.015929970195187382         1.0000   
         H         H         1.0       0.49659009093395484           0.713518548192428  0.8528269770184546 1.0000   
         H         H         1.0       0.48904009343717797           0.6066174542845955 0.8464762188359836 1.0000   
         H         H         1.0       0.4161185974195626  0.5721111854667443  0.8553150884781471 1.0000   
         H         H         1.0       0.4246129262064003  0.6773013509114698  0.8592142484213141 1.0000   
         H         H         1.0       0.630592306737971   0.751888535379337   0.8582062535268882 1.0000   
         H         H         1.0       0.6564665808588012  0.8162203059761892  0.8428666570952663 1.0000   
         H         H         1.0       0.5589377437969032  0.7802237403532718  0.7780159581760067 1.0000   
         H         H         1.0       0.5244074330762992  0.7130338818399101  0.7976883330110202 1.0000   
         H         H         1.0       0.5363116775821315  0.6271755682662615  0.8936496015290017 1.0000   
         H         H         1.0       0.5266942775107968  0.6213105636625588  0.9488726989230841 1.0000   
         H         H         1.0       0.5653741667258821  0.7393994904636213  0.9569381939413879 1.0000   
         H         H         1.0       0.5714594227578786  0.7443121124270852  0.8977548726847826 1.0000   
         H         H         1.0       0.4462470387494988  0.5376212466858412  0.029780160830314983         1.0000   
         H         H         1.0       0.5115327684831853  0.5979348414166848  0.033245319346586255         1.0000   
         H         H         1.0       0.4623036489865238  0.6393887212688983  0.9633851506681139 1.0000   
         H         H         1.0       0.40057448251659744           0.5794651659009304 0.9572428491670313 1.0000   
         H         H         1.0       0.5867954581950994  0.7488641857070839  0.0018563271658718072        1.0000   
         H         H         1.0       0.5849875428457404  0.7959268380643589  0.031147533597752686         1.0000   
         H         H         1.0       0.4631988335515263  0.7164892254505533  0.06179850599872516          1.0000   
         H         H         1.0       0.466419322580463   0.6640150526556616  0.03986444440471604          1.0000   
         H         H         1.0       0.5771418015987535  0.7019877738849108  0.06262016452603536          1.0000   
         H         H         1.0       0.6503870782348218  0.7309874146748122  0.0688389101171678 1.0000   
         H         H         1.0       0.6465740182222854  0.6604565302721047  0.9884428774735683 1.0000   
         H         H         1.0       0.5723108964942626  0.6301095021964229  0.9825781190080819 1.0000   
         C         C         1.0       0.6761564213331395  0.9276291234503301  0.6484045302720606 1.0000   
         C         C         1.0       0.717853674248056   0.9447168956816823  0.645211279290167  1.0000   
         C         C         1.0       0.744013628099506   0.9836169444680724  0.6378940590461991 1.0000   
         C         C         1.0       0.7298420127522858  0.007904639097426447         0.6397207013280247 1.0000   
         C         C         1.0       0.6878333551009931  0.9900450630398461  0.647401649929103  1.0000   
         C         C         1.0       0.6618035557073244  0.9511690038745327  0.648692390625041  1.0000   
         H         H         1.0       0.7312753375988295  0.9288255656905986  0.6471134779010713 1.0000   
         H         H         1.0       0.7759990459677434  0.995116799137373   0.6366584358601836 1.0000   
         H         H         1.0       0.6747220951145292  0.007625609769683406         0.651400414303954  1.0000   
         H         H         1.0       0.6295377466207274  0.9416133070943993  0.6528931875642328 1.0000   
         C         C         1.0       0.7220881803774893  0.06342430411830557           0.5988697993941274 1.0000   
         C         C         1.0       0.7436273008884193  0.0762065972175503  0.6290731290931404 1.0000   
         C         C         1.0       0.7525701379290959  0.11148462367946776           0.6430117057796378 1.0000   
         C         C         1.0       0.7360955499445629  0.12938127879011052           0.6298236708946041 1.0000   
         C         C         1.0       0.7111607926551123  0.1133642237809187  0.6009845329053374 1.0000   
         C         C         1.0       0.7075416123598386  0.0823064452647102  0.5842638295725912 1.0000   
         C         C         1.0       0.7617100403112113  0.054925626595220045         0.6430143600989214 1.0000   
         C         C         1.0       0.7992705290312746  0.07339908355672597           0.6161483570691894 1.0000   
         C         C         1.0       0.8316985635451103  0.11161972601274761           0.6210073637544431 1.0000   
         C         C         1.0       0.8624254073422121  0.13270665502429568           0.5974738920565816 1.0000   
         C         C         1.0       0.8607942554442474  0.11409058205820788           0.5686956353132729 1.0000   
         C         C         1.0       0.8317464242800826  0.07675163839660337           0.5628078185245875 1.0000   
         C         C         1.0       0.7984678011227845  0.05655576730474099           0.5862868245519067 1.0000   
         C         C         1.0       0.749065637770214   0.055622501799437174         0.7069857250640951 1.0000   
         C         C         1.0       0.7486091497786984  0.039877963466834476         0.7379233858590123 1.0000   
         C         C         1.0       0.7748082975737064  0.028242379532667616         0.7456754032901487 1.0000   
         C         C         1.0       0.8034120405876591  0.035579350781101304         0.7207721874305527 1.0000   
         C         C         1.0       0.8033216679072692  0.05077207149848717           0.6888771536929643 1.0000   
         C         C         1.0       0.7739087632225992  0.057262318705529225         0.6812078724792905 1.0000   
         C         C         1.0       0.7726218988099439  0.0053914480912704565        0.7785442852354019 1.0000   
         C         C         1.0       0.8614731896927057  0.11188539330189329           0.8339727994992552 1.0000   
         C         C         1.0       0.8223316909052861  0.10185585275124054           0.8264389966654491 1.0000   
         C         C         1.0       0.7942589413878209  0.06763802493192106           0.8123690127163199 1.0000   
         C         C         1.0       0.804271793751282   0.04336526395465401           0.8015247260128479 1.0000   
         C         C         1.0       0.8440558484977286  0.05335629451520907           0.8061324516303034 1.0000   
         C         C         1.0       0.8714791307377712  0.08784251605896709           0.8228477795423821 1.0000   
         C         C         1.0       0.7833135760939502  0.9738107307878868  0.777548339127051  1.0000   
         C         C         1.0       0.780734696256466   0.9556803601506316  0.7470271092266934 1.0000   
         C         C         1.0       0.7927267479951402  0.9314916558667891  0.7443598605482415 1.0000   
         C         C         1.0       0.8075196619159631  0.924180210123058   0.7719344048318654 1.0000   
         C         C         1.0       0.8096113931440757  0.9407870231061122  0.8031288699072539 1.0000   
         C         C         1.0       0.7970317704702811  0.9654261294004928  0.8065633050416023 1.0000   
         C         C         1.0       0.7192886315779293  0.967118882572764   0.827576304495147  1.0000   
         C         C         1.0       0.6832107639817359  0.9354559964369193  0.8386224956368492 1.0000   
         C         C         1.0       0.6540530386313768  0.9117399368563325  0.8148285311936212 1.0000   
         C         C         1.0       0.6612603464533667  0.9239332678253835  0.7801291852061462 1.0000   
         C         C         1.0       0.6981266439594676  0.9543926929397668  0.7697320669072617 1.0000   
         C         C         1.0       0.7281002337691036  0.9764575970792643  0.7922675006400145 1.0000   
         H         H         1.0       0.7145477127031995  0.0381727530345628  0.5849154981469512 1.0000   
         H         H         1.0       0.768609325248137   0.12142317882550491           0.6674867091369447 1.0000   
         H         H         1.0       0.7421316639539068  0.15654112627218475           0.6400063167098439 1.0000   
         H         H         1.0       0.6885987061203028  0.07063246622765051           0.5616565762380124 1.0000   
         H         H         1.0       0.8323757486985831  0.1272620532438542  0.6423891616848276 1.0000   
         H         H         1.0       0.8823976210371739  0.1628831754263127  0.6030568528411546 1.0000   
         H         H         1.0       0.8285001174450562  0.059522287782517   0.5393985404625559 1.0000   
         H         H         1.0       0.7731251272985292  0.02939392970194188           0.579289599731543  1.0000   
         H         H         1.0       0.7239704781488401  0.05768907016149449           0.6993574814560544 1.0000   
         H         H         1.0       0.7231302842972525  0.03138996051758536           0.757334937925866  1.0000   
         H         H         1.0       0.8247485213058915  0.027796248690398206         0.7258794180677289 1.0000   
         H         H         1.0       0.8271639980329454  0.05447283218170518           0.671788599361529  1.0000   
         H         H         1.0       0.8154436148207017  0.12326851616122259           0.8309617399352721 1.0000   
         H         H         1.0       0.7647897551568468  0.06041739221733522           0.8086538279109308 1.0000   
         H         H         1.0       0.8571938910289452  0.03831912791873093           0.795062591563195  1.0000   
         H         H         1.0       0.8985251418679602  0.09216453575188428           0.8309169856557455 1.0000   
         H         H         1.0       0.7666214587859407  0.9590149718024931  0.7261683401870095 1.0000   
         H         H         1.0       0.7885586330955919  0.9190280842128499  0.7190056498836093 1.0000   
         H         H         1.0       0.8238318168205172  0.9383671750421713  0.8244074253386892 1.0000   
         H         H         1.0       0.7984964711622878  0.976721884234961   0.8310616046411173 1.0000   
         H         H         1.0       0.7423575484702445  0.9850887382076888  0.8439216296436676 1.0000   
         H         H         1.0       0.6823095082234655  0.9307320464842439  0.8654248339974223 1.0000   
         H         H         1.0       0.6373977823995782  0.9074273807187183  0.7596407991937084 1.0000   
         H         H         1.0       0.7045921103961337  0.9606881322121229  0.7415562219946757 1.0000   
         C         C         1.0       0.40982708531569306           0.08818116567620393          0.2001923464173275 1.0000   
         C         C         1.0       0.4486383096243377  0.11679506442183651           0.19367305585382705          1.0000   
         C         C         1.0       0.48053660201871184           0.11250264361157702          0.19739761364783556          1.0000   
         C         C         1.0       0.47242467622862316           0.07758452085899736          0.20756695884044676          1.0000   
         C         C         1.0       0.4324255326877868  0.048121353594429594         0.21645103661959597          1.0000   
         C         C         1.0       0.4025668623867012  0.05404221826155475           0.21208952843202378          1.0000   
         H         H         1.0       0.4531106365384801  0.1437815921446992  0.18479052258155398          1.0000   
         H         H         1.0       0.5099349356379691  0.13479481858344133           0.19183520804689674          1.0000   
         H         H         1.0       0.4245771102054618  0.0197174500987507  0.22308883955480882          1.0000   
         H         H         1.0       0.3726809530090635  0.029868913306686062         0.22160870035360486          1.0000   
         C         C         1.0       0.4829672251133939  0.0195172806018733  0.25496270409189475          1.0000   
         C         C         1.0       0.5053872679341689  0.034258640668455964         0.22468629719755917          1.0000   
         C         C         1.0       0.5273082399305384  0.019909715256646532         0.21346885627418505          1.0000   
         C         C         1.0       0.5225385422741176  0.9875659307829687  0.22662654972584945          1.0000   
         C         C         1.0       0.4971954361883619  0.9701149742386731  0.2545525683191399 1.0000   
         C         C         1.0       0.4792306189565895  0.9874039751824755  0.2685928198951087 1.0000   
         C         C         1.0       0.508961835926085   0.07027061783378197           0.2070575624017457 1.0000   
         C         C         1.0       0.5482233999212648  0.10589594576518846           0.22413826802776918          1.0000   
         C         C         1.0       0.5849007424797547  0.11693771598525937           0.2145956046219823 1.0000   
         C         C         1.0       0.6200869755986039  0.14859439612826097           0.22619129898821594          1.0000   
         C         C         1.0       0.61530641438337    0.1683525017925982  0.253970644528491  1.0000   
         C         C         1.0       0.5772555121512534  0.15672367654252595           0.2661742178069105 1.0000   
         C         C         1.0       0.5458907296980864  0.12415956474867529           0.2525055765477276 1.0000   
         C         C         1.0       0.47316312436581454           0.025860295519250176         0.1551285925904647 1.0000   
         C         C         1.0       0.4765910593842888  0.009698998331929332         0.12655571069148952          1.0000   
         C         C         1.0       0.5147867430030161  0.02337164263956626           0.11083920321468715          1.0000   
         C         C         1.0       0.5464814241625031  0.06100727648549209           0.1207513716382914 1.0000   
         C         C         1.0       0.5401017385595352  0.07954003105284757           0.14684494265440243          1.0000   
         C         C         1.0       0.5060599168961645  0.06127358280406514           0.1672611602461416 1.0000   
         C         C         1.0       0.5201035936128937  0.9986058290571678  0.08123413667957324          1.0000   
         C         C         1.0       0.46016736563449945           0.8752127457016883 0.10003495670981315          1.0000   
         C         C         1.0       0.46694878135731244           0.8875816047459051 0.06655103865224166          1.0000   
         C         C         1.0       0.48717909225678513           0.9263990914514472 0.06010743931694029          1.0000   
         C         C         1.0       0.4959361299641886  0.9526507930788922  0.08647686305590319          1.0000   
         C         C         1.0       0.48743630862296516           0.9381534478855152 0.11874533226200672          1.0000   
         C         C         1.0       0.46971983213091767           0.9003320679281427 0.12594676043154476          1.0000   
         C         C         1.0       0.562288927433779   0.004019243613315515         0.08153786407632913          1.0000   
         C         C         1.0       0.5831205070989882  0.008837020363994474         0.11135039707521949          1.0000   
         C         C         1.0       0.6166926780495887  0.00740801374583544           0.11131223310204742          1.0000   
         C         C         1.0       0.632934301527407   0.0017106064965481949        0.08184892656222309          1.0000   
         C         C         1.0       0.6140552450627829  0.9989657219983856  0.05300899755494659          1.0000   
         C         C         1.0       0.5802188684617283  0.00048566983367970273       0.052119117763225205         1.0000   
         C         C         1.0       0.535915456183504   0.045667163077800055         0.033546331196341095         1.0000   
         C         C         1.0       0.5310306009544061  0.051789381746788044         0.00040603532126692876       1.0000   
         C         C         1.0       0.49720684313926145           0.025312682533663367         0.9822464714612777 1.0000   
         C         C         1.0       0.4645550215596675  0.9925224752701394  0.9996963634910949 1.0000   
         C         C         1.0       0.4694156860181662  0.9872586959150026  0.03433529462069984          1.0000   
         C         C         1.0       0.50829239947558    0.011887065294083676         0.0487292690064709 1.0000   
         H         H         1.0       0.47008597534410923           0.03285900116194118          0.2674815996824887 1.0000   
         H         H         1.0       0.5433690216454609  0.028716185095679636         0.1894869199077913 1.0000   
         H         H         1.0       0.5374291381042429  0.9760572681963661  0.21702808013015668          1.0000   
         H         H         1.0       0.4576729292422507  0.9724407744382619  0.2887708576179872 1.0000   
         H         H         1.0       0.5890861597700052  0.1028078885758974  0.19464501564111975          1.0000   
         H         H         1.0       0.64999435187923    0.16069319506361746           0.21482287573810385          1.0000   
         H         H         1.0       0.5755963157926738  0.17161186826576524           0.28804478081465607          1.0000   
         H         H         1.0       0.5171232783378402  0.11312996189250257           0.264227249067478  1.0000   
         H         H         1.0       0.44648521188364393           0.0067827646895555205        0.1692456082143672 1.0000   
         H         H         1.0       0.44784415384903126           0.9821274996834187 0.11876587883351639          1.0000   
         H         H         1.0       0.5749459609939859  0.07567034880579837           0.11036913869516658          1.0000   
         H         H         1.0       0.5645775721236169  0.11119779590381373           0.1508521088637365 1.0000   
         H         H         1.0       0.4591473891696654  0.8690840439989556  0.04505278904706267          1.0000   
         H         H         1.0       0.49250385345333597           0.9353179270572178 0.03460368103088518          1.0000   
         H         H         1.0       0.4943083440329352  0.9574306445856032  0.14020759996605792          1.0000   
         H         H         1.0       0.4648501815179522  0.8896911902991069  0.15132247961007042          1.0000   
         H         H         1.0       0.570930388604992   0.010312738415882539         0.13557679998509894          1.0000   
         H         H         1.0       0.6333993296188639  0.010040641294090324         0.13513772817580327          1.0000   
         H         H         1.0       0.6246581879885094  0.9940923529972414  0.029752522311774943         1.0000   
         H         H         1.0       0.5621806413143756  0.9929109023581908  0.03055725433903245          1.0000   
         H         H         1.0       0.5634765295896179  0.06554594977021155           0.045202180394419145         1.0000   
         H         H         1.0       0.5546883927414581  0.07711523080159433           0.9875893930107776 1.0000   
         H         H         1.0       0.4369788762405995  0.9707864403446547  0.9863868391702753 1.0000   
         H         H         1.0       0.44723628279159944           0.9602003956466824 0.0453565228120929 1.0000   
         C         C         1.0       0.6345460625716578  0.08738527057023004           0.4655312825944999 1.0000   
         C         C         1.0       0.6744075773313917  0.11707846060842075           0.4686897328432326 1.0000   
         C         C         1.0       0.7037691228407177  0.11029488847160374           0.46782498333885436          1.0000   
         C         C         1.0       0.6962719997537016  0.07457739144971609           0.46076518931089416          1.0000   
         C         C         1.0       0.6557510775258177  0.04552885072591484           0.45458720259980284          1.0000   
         C         C         1.0       0.6244777064160484  0.0509514760191514  0.45692638239280414          1.0000   
         H         H         1.0       0.6822546043581181  0.14715932554137612           0.47034710347054737          1.0000   
         H         H         1.0       0.7340461173592179  0.1358212782795758  0.4713204370062843 1.0000   
         H         H         1.0       0.6458074173342904  0.016771691622676776         0.44602597557092877          1.0000   
         H         H         1.0       0.5940946603685548  0.030903571754296477         0.4497754392700154 1.0000   
         C         C         1.0       0.7029710096892946  0.019453570594537783         0.49980947380579777          1.0000   
         C         C         1.0       0.7194379052948785  0.027873793506034028         0.46721181310343707          1.0000   
         C         C         1.0       0.7317330877670626  0.005584699756260747         0.4526240703588798 1.0000   
         C         C         1.0       0.7341314375162233  0.9793880291854523  0.4709658644667807 1.0000   
         C         C         1.0       0.7226788535600263  0.9742643743058588  0.505556378692852  1.0000   
         C         C         1.0       0.7041509125117703  0.9923916377129183  0.5191924497493299 1.0000   
         C         C         1.0       0.7295756259491196  0.06629639813544075           0.4498923966189009 1.0000   
         C         C         1.0       0.7720946423348737  0.09573835654186391           0.46698781497275044          1.0000   
         C         C         1.0       0.8079134225741086  0.10015969716212125           0.4527598535867828 1.0000   
         C         C         1.0       0.8443060695976741  0.1215901344952488  0.46952270051668105          1.0000   
         C         C         1.0       0.8459930095396128  0.1390139772095078  0.499401159393414  1.0000   
         C         C         1.0       0.812115442599605   0.13676153281271297           0.513324080249436  1.0000   
         C         C         1.0       0.7754366132187482  0.11156445933734749           0.49913973174457965          1.0000   
         C         C         1.0       0.7081883000797263  0.04268496909310748           0.3882588358449629 1.0000   
         C         C         1.0       0.7102712205301853  0.05015446294858994           0.3537537092200177 1.0000   
         C         C         1.0       0.7300596305339858  0.08781122439952771           0.34201638744833696          1.0000   
         C         C         1.0       0.7543430127015106  0.11691951881368934           0.3655610407907803 1.0000   
         C         C         1.0       0.7558088218315863  0.10934496766711455           0.3991556124757835 1.0000   
         C         C         1.0       0.7317165458208368  0.07282480210256836           0.4107311385973313 1.0000   
         C         C         1.0       0.7301043122167906  0.09970069529582082           0.30262725077730074          1.0000   
         C         C         1.0       0.6493937600745898  0.006239696383044446         0.23373918287828016          1.0000   
         C         C         1.0       0.6865008373357034  0.03742374755084765           0.22220955662024455          1.0000   
         C         C         1.0       0.7127489813989946  0.06553756749636053           0.24335848532826082          1.0000   
         C         C         1.0       0.7014032649663687  0.06621751684247301           0.27656382695229387          1.0000   
         C         C         1.0       0.6615707121716701  0.03790833240848501           0.2861017426322608 1.0000   
         C         C         1.0       0.6364353498306424  0.005970004726539635         0.2653982909549815 1.0000   
         C         C         1.0       0.7764876346871175  0.11960516594556414           0.2921361032451843 1.0000   
         C         C         1.0       0.8016371120249781  0.1581904134705261  0.2957038649777522 1.0000   
         C         C         1.0       0.8424254261995494  0.17490211042201698           0.29635208953804165          1.0000   
         C         C         1.0       0.8603811113045478  0.1554440772981125  0.2921971309021839 1.0000   
         C         C         1.0       0.8353565598991346  0.11731802599535945           0.2857887656228087 1.0000   
         C         C         1.0       0.7933176109672079  0.09856615800165391           0.2843757699725955 1.0000   
         C         C         1.0       0.7214486703791083  0.14836947506699527           0.27325476157367096          1.0000   
         C         C         1.0       0.708064316086331   0.1728108529721819  0.27313503339865   1.0000   
         C         C         1.0       0.6863780806216945  0.17491687023121627           0.3000015192939917 1.0000   
         C         C         1.0       0.6788114665056387  0.1528619516009646  0.3272611938036248 1.0000   
         C         C         1.0       0.688680024302748   0.12610681475352759           0.32743020739329876          1.0000   
         C         C         1.0       0.7125325138548195  0.12536858314428834           0.30076827546994694          1.0000   
         H         H         1.0       0.6946829533601244  0.0353501204597646  0.5128122745188929 1.0000   
         H         H         1.0       0.7452211508653261  0.01415800793031341           0.4267274722069139 1.0000   
         H         H         1.0       0.7480602126317004  0.9651931468411855  0.4609076999886141 1.0000   
         H         H         1.0       0.6935211801259183  0.9877644105378087  0.5460632757425404 1.0000   
         H         H         1.0       0.8088324235015849  0.08920020956346297           0.4293508841602634 1.0000   
         H         H         1.0       0.87069159427954    0.12681558959727535           0.4574706589435908 1.0000   
         H         H         1.0       0.8131776380944007  0.15041869649889117           0.5395940653428667 1.0000   
         H         H         1.0       0.7501781935364731  0.10775141582327596           0.5125684597746896 1.0000   
         H         H         1.0       0.6867302982646784  0.012396878691748547         0.39596067999125173          1.0000   
         H         H         1.0       0.6936564823496366  0.02639077942355783           0.33775062925957766          1.0000   
         H         H         1.0       0.7696760927855695  0.14654085862378174           0.35754092931438275          1.0000   
         H         H         1.0       0.7713559904630127  0.13306210606970836           0.4172988607716645 1.0000   
         H         H         1.0       0.6931458913029696  0.03615205934302068           0.19592223210364615          1.0000   
         H         H         1.0       0.7417595069216754  0.0892144261913399  0.23422849899265183          1.0000   
         H         H         1.0       0.6503476527201758  0.03735495871012451           0.31230675563577814          1.0000   
         H         H         1.0       0.6058416041544572  0.9849394197077717  0.27433084359653054          1.0000   
         H         H         1.0       0.7911811000793209  0.17551909126485676           0.3041634667133141 1.0000   
         H         H         1.0       0.8626558122251755  0.20491322927749445           0.30060618497409186          1.0000   
         H         H         1.0       0.8469094472250532  0.09882038477460342           0.2810934909733855 1.0000   
         H         H         1.0       0.7694910143214728  0.06661582517259657           0.282142117555834  1.0000   
         H         H         1.0       0.7406708405292767  0.1496340063458681  0.25121400815199363          1.0000   
         H         H         1.0       0.7184654114840354  0.19315539454147457           0.2513540833958922 1.0000   
         H         H         1.0       0.656545190436631   0.15132843692596287           0.3462366181303319 1.0000   
         H         H         1.0       0.6788119634201176  0.10976637537583134           0.34990733971089827          1.0000   
         C         C         1.0       0.4286005647181124  0.8267221462447126  0.4612217143313036 1.0000   
         C         C         1.0       0.3932868717861588  0.8216398839144249  0.4664825280452396 1.0000   
         C         C         1.0       0.3894930341823273  0.8510308828219845  0.46918083027752266          1.0000   
         C         C         1.0       0.42304258077472884           0.8889981569881609 0.46575238739898167          1.0000   
         C         C         1.0       0.46087526691500597           0.8932973441566776 0.463798651780292  1.0000   
         C         C         1.0       0.46362581771137684           0.862615961234722  0.4627235432935363 1.0000   
         H         H         1.0       0.3673370346915406  0.7915186933539652  0.465359783315408  1.0000   
         H         H         1.0       0.3588534265537196  0.8463604198489507  0.4665878068131772 1.0000   
         H         H         1.0       0.4920574763869901  0.9216455801733299  0.46552806786212947          1.0000   
         H         H         1.0       0.49265389793514386           0.8664695420577933 0.464704778365022  1.0000   
         C         C         1.0       0.4814558985506678  0.9803001092115744  0.4781764273919036 1.0000   
         C         C         1.0       0.45755895383295664           0.9651594737821941 0.45074431171340357          1.0000   
         C         C         1.0       0.4667730123700422  0.9883831351662408  0.4230060605479019 1.0000   
         C         C         1.0       0.5031495148925933  0.02153951466059767           0.41996149752649037          1.0000   
         C         C         1.0       0.5289772280640472  0.03731164311528268           0.44712596924793796          1.0000   
         C         C         1.0       0.5191627388679488  0.015891709715653235         0.47586865601959466          1.0000   
         C         C         1.0       0.4168112380440404  0.9209050213330766  0.4518760753009486 1.0000   
         C         C         1.0       0.38928348938036017           0.9265017757762843 0.47879858921158713          1.0000   
         C         C         1.0       0.37564675727124225           0.9497483346595756 0.4711106396931509 1.0000   
         C         C         1.0       0.35791531929824755           0.9595601391420129 0.4951391401668912 1.0000   
         C         C         1.0       0.35114931670020677           0.9464747128245267 0.527538853751718  1.0000   
         C         C         1.0       0.3626763581526865  0.9210030316645206  0.5354147086958563 1.0000   
         C         C         1.0       0.3842726363657986  0.9137715154739252  0.511495860781519  1.0000   
         C         C         1.0       0.4176217564275573  0.8977746354544134  0.3910744624835166 1.0000   
         C         C         1.0       0.3971440162613793  0.8697614699233447  0.3667097837234878 1.0000   
         C         C         1.0       0.3544897547099248  0.8485327526619716  0.36499806140506735          1.0000   
         C         C         1.0       0.33491353072553015           0.8595245495514215 0.38694737657910244          1.0000   
         C         C         1.0       0.35492776364098055           0.88709072191971   0.41053173804958115          1.0000   
         C         C         1.0       0.3966660005903888  0.9038745096056064  0.415129850574022  1.0000   
         C         C         1.0       0.33188297449638476           0.8098694200210134 0.3405078957793908 1.0000   
         C         C         1.0       0.4226983718655723  0.8689021358475608  0.25841005402696166          1.0000   
         C         C         1.0       0.41772815968310023           0.835923167195254  0.2731352976627177 1.0000   
         C         C         1.0       0.38807632421762533           0.8174579219875656 0.2976331807456143 1.0000   
         C         C         1.0       0.35990808377351063           0.8257840198939111 0.3058684903339589 1.0000   
         C         C         1.0       0.36388550430880295           0.8566981847364104 0.28935900635693645          1.0000   
         C         C         1.0       0.39334192468313384           0.8777353574324652 0.26509537274587547          1.0000   
         C         C         1.0       0.28776481279940175           0.79641052195767   0.33230113138663736          1.0000   
         C         C         1.0       0.2617554509691674  0.7825108200829806  0.3606022671744933 1.0000   
         C         C         1.0       0.22177812103681852           0.7699928274997249 0.35752153151947524          1.0000   
         C         C         1.0       0.2066260463898362  0.7693735492964815  0.32681177227002306          1.0000   
         C         C         1.0       0.23072480625478975           0.7775542341592817 0.2986027222150818 1.0000   
         C         C         1.0       0.2716165146486579  0.7942920382408353  0.3017506988907715 1.0000   
         C         C         1.0       0.3158385249865257  0.7403750100641345  0.33638774391809717          1.0000   
         C         C         1.0       0.3081612328391907  0.7062634126712155  0.35152737549964946          1.0000   
         C         C         1.0       0.3197988164347625  0.7077181293147969  0.38542556964280394          1.0000   
         C         C         1.0       0.3315368556011111  0.7390770242380384  0.40440379966008894          1.0000   
         C         C         1.0       0.3367104286041512  0.7719753909214402  0.3901851597803259 1.0000   
         C         C         1.0       0.32898610667291656           0.7726270986821928 0.3559025048114331 1.0000   
         H         H         1.0       0.4711202843157518  0.9608307763523265  0.4987445139012487 1.0000   
         H         H         1.0       0.4482080809908287  0.9772184584872994  0.3997610893368388 1.0000   
         H         H         1.0       0.5119428357586513  0.03738210540669096           0.39661856465066875          1.0000   
         H         H         1.0       0.5369064847508858  0.026127759951306118         0.49856172554352135          1.0000   
         H         H         1.0       0.3768804198614461  0.9555198957214845  0.44572923684348237          1.0000   
         H         H         1.0       0.3465297112404477  0.9769027684207148  0.4869128349741069 1.0000   
         H         H         1.0       0.35832947730979675           0.9096069089060012 0.560720430836565  1.0000   
         H         H         1.0       0.39653939435996444           0.8984010959273313 0.5221706361757388 1.0000   
         H         H         1.0       0.44852631445366103           0.9064164596408704 0.3955968263187051 1.0000   
         H         H         1.0       0.41449944377753684           0.8609449883622772 0.3533484307466657 1.0000   
         H         H         1.0       0.3038312848848373  0.8481250422713442  0.3865360561345704 1.0000   
         H         H         1.0       0.3381827649174472  0.89304341869196    0.42780152474021865          1.0000   
         H         H         1.0       0.4400634657837972  0.8278730241562914  0.2701703572771719 1.0000   
         H         H         1.0       0.3892111896082386  0.7953922758935442  0.31172068945543097          1.0000   
         H         H         1.0       0.3443712607765255  0.8646821478346675  0.2989661888030695 1.0000   
         H         H         1.0       0.39795034692732356           0.9041921541971664 0.25764376441552184          1.0000   
         H         H         1.0       0.2731495475011978  0.7817179321553137  0.38597833856926816          1.0000   
         H         H         1.0       0.20505186030283504           0.7674157177742611 0.3806283380067635 1.0000   
         H         H         1.0       0.22293719168059822           0.7772008433380668 0.27198540825859924          1.0000   
         H         H         1.0       0.28959701577119573           0.8007697798740684 0.279929710664812  1.0000   
         H         H         1.0       0.31438320811787157           0.7431915172679692 0.3090357404327096 1.0000   
         H         H         1.0       0.30122524824206676           0.681511628829269  0.3371119585253775 1.0000   
         H         H         1.0       0.3436520078639356  0.7446599445519809  0.42941429939321185          1.0000   
         H         H         1.0       0.34599148660296153           0.7976328623811402 0.4048410896789846 1.0000   
         C         C         1.0       0.5346303377177144  0.6535261634044028  0.26743092521242273          1.0000   
         C         C         1.0       0.5341325162958401  0.6732840917912625  0.294845398306148  1.0000   
         C         C         1.0       0.5070180294421064  0.6836614441280793  0.2977030310372012 1.0000   
         C         C         1.0       0.48476959871331265           0.6814525218219997 0.27043497114211523          1.0000   
         C         C         1.0       0.487376711677239   0.6641410037500425  0.24178661254573483          1.0000   
         C         C         1.0       0.5113281918477977  0.6493457922924429  0.24031316848360304          1.0000   
         H         H         1.0       0.5547326773468118  0.6785926217848832  0.31471983011899013          1.0000   
         H         H         1.0       0.5059337927926919  0.6976387009021201  0.32186251209543076          1.0000   
         H         H         1.0       0.47344667984128325           0.6642936137200278 0.21643259286851044          1.0000   
         H         H         1.0       0.5123782744321714  0.6356253792555986  0.21863231068599698          1.0000   
         C         C         1.0       0.5265094611821528  0.7735066272321712  0.2819999993604302 1.0000   
         C         C         1.0       0.4990224945252892  0.7459743088528593  0.25990730843905363          1.0000   
         C         C         1.0       0.50931066755412    0.7512510530076714  0.22533192782424824          1.0000   
         C         C         1.0       0.5394164692561395  0.7851972488582163  0.21339254190014711          1.0000   
         C         C         1.0       0.5660266937189402  0.8143452031937388  0.23439501587065886          1.0000   
         C         C         1.0       0.5602381965189708  0.8066808572880814  0.26903463619717294          1.0000   
         C         C         1.0       0.46351955320871935           0.7049809722383525 0.27230853412704836          1.0000   
         C         C         1.0       0.4420559958019086  0.7051099171372175  0.3061093969029625 1.0000   
         C         C         1.0       0.43248392935944163           0.7323738599046361 0.3163641337992539 1.0000   
         C         C         1.0       0.4043346318871789  0.72435465051102    0.3404817176506722 1.0000   
         C         C         1.0       0.3881008984122021  0.6913431095401331  0.3603084365495235 1.0000   
         C         C         1.0       0.3976086248868361  0.6654157021348194  0.35166054714731476          1.0000   
         C         C         1.0       0.4248278129366432  0.6733266085827259  0.3270713806924538 1.0000   
         C         C         1.0       0.40017516913389234           0.6524618704022096 0.23756859330286847          1.0000   
         C         C         1.0       0.37654344487330105           0.6432451931205714 0.20939469119335383          1.0000   
         C         C         1.0       0.3800087971516865  0.6714636335051649  0.1889897164840187 1.0000   
         C         C         1.0       0.397655742769097   0.7076690881056338  0.20196335802394666          1.0000   
         C         C         1.0       0.4188942015031781  0.7163532068531487  0.23097217942803394          1.0000   
         C         C         1.0       0.42616057466044877           0.6908683411399009 0.2488282309981726 1.0000   
         C         C         1.0       0.3723943476913817  0.6648955723458745  0.14842057431541683          1.0000   
         C         C         1.0       0.48498808617956074           0.6673941729058125 0.12853976267138428          1.0000   
         C         C         1.0       0.4486569391453625  0.6331117237013908  0.1306247021144821 1.0000   
         C         C         1.0       0.41201414315774204           0.6289020558078555 0.1359128543177193 1.0000   
         C         C         1.0       0.4116128296059575  0.6625299290051372  0.13787708059966186          1.0000   
         C         C         1.0       0.44964432314686725           0.6978131299493836 0.13831612060709708          1.0000   
         C         C         1.0       0.48466540977137823           0.699458848633664  0.13284501018926403          1.0000   
         C         C         1.0       0.3689644708190261  0.6958109281807267  0.1288237793159144 1.0000   
         C         C         1.0       0.3483126820472654  0.7104872820225803  0.14366986014098362          1.0000   
         C         C         1.0       0.35646166219220266           0.7455527918310281 0.13297684843170052          1.0000   
         C         C         1.0       0.3845879686751448  0.7664612678016947  0.10761759151098844          1.0000   
         C         C         1.0       0.3952404911173454  0.7455782711148378  0.08835988183034611          1.0000   
         C         C         1.0       0.3888083201050575  0.712102007630786   0.09868563470027836          1.0000   
         C         C         1.0       0.322696084384584   0.6069358447784541  0.10920897462801317          1.0000   
         C         C         1.0       0.2841332182781377  0.5789941847385413  0.0983968823574104 1.0000   
         C         C         1.0       0.25017426289966704           0.5712360296513957 0.11716892305934601          1.0000   
         C         C         1.0       0.2562356912926757  0.590028225483985   0.14848293828189796          1.0000   
         C         C         1.0       0.2964898027041749  0.6184045576755031  0.15854228219460892          1.0000   
         C         C         1.0       0.3293743634320127  0.6270958787738846  0.13881604307518783          1.0000   
         H         H         1.0       0.5214004558572543  0.7680620400469583  0.31034649426475075          1.0000   
         H         H         1.0       0.491622558140511   0.7306651412944191  0.2072279233968752 1.0000   
         H         H         1.0       0.5475589208008075  0.7881529398078414  0.18619561814165378          1.0000   
         H         H         1.0       0.5822278040943724  0.8272167366969461  0.2867088033271865 1.0000   
         H         H         1.0       0.4461467007103318  0.7565900849778328  0.30002158904033127          1.0000   
         H         H         1.0       0.3987570855129465  0.74689690774167    0.34572174500289676          1.0000   
         H         H         1.0       0.3855481390877773  0.6397814526739436  0.36788777159078856          1.0000   
         H         H         1.0       0.4283316933600488  0.6506374559943398  0.31967477205778294          1.0000   
         H         H         1.0       0.4056105133635074  0.6327952515187568  0.2495415323464412 1.0000   
         H         H         1.0       0.35728893368341036           0.6135454859341337 0.2023704975293151 1.0000   
         H         H         1.0       0.40272330594723615           0.7325433709928196 0.18917913807932113          1.0000   
         H         H         1.0       0.4358462889259335  0.7466956797399608  0.2375780242913815 1.0000   
         H         H         1.0       0.4495761008939542  0.6077977131229904  0.1273265391397692 1.0000   
         H         H         1.0       0.38444896450112626           0.6008618585705912 0.13702924830829488          1.0000   
         H         H         1.0       0.4542843951515135  0.7262976571463309  0.14280335823128962          1.0000   
         H         H         1.0       0.5146025863181942  0.7285499563270944  0.13557424039600066          1.0000   
         H         H         1.0       0.32840599529571407           0.6953710910339502 0.16468829490606524          1.0000   
         H         H         1.0       0.34326307996445166           0.7582672543184091 0.14610443671034712          1.0000   
         H         H         1.0       0.4150152362402454  0.7562114827894373  0.0665939022386941 1.0000   
         H         H         1.0       0.4019434101786513  0.7016036446568036  0.08403486479640287          1.0000   
         H         H         1.0       0.3476521070108271  0.6156354599378007  0.0933583542978679 1.0000   
         H         H         1.0       0.27976199864730217           0.5629791649613791 0.0751637954477482 1.0000   
         H         H         1.0       0.23156619417603957           0.5875258328308872 0.16447941065948382          1.0000   
         H         H         1.0       0.3006959604646302  0.6362858190421182  0.18020984556736988          1.0000   
         C         C         1.0       0.8950891970556565  0.08853941682434385           0.16601499354526866          1.0000   
         C         C         1.0       0.8956284630617577  0.056950272897265064         0.15679210493530704          1.0000   
         C         C         1.0       0.8674651105262875  0.021413707529457815         0.17030321471792453          1.0000   
         C         C         1.0       0.834911878658648   0.015699928752894943         0.18872462213026148          1.0000   
         C         C         1.0       0.8336939354783349  0.046080035625985394         0.19938046787696903          1.0000   
         C         C         1.0       0.8643636774785469  0.08234091784187503           0.1878735183450239 1.0000   
         H         H         1.0       0.9217214441643155  0.06243851540629741           0.14318202113359477          1.0000   
         H         H         1.0       0.8677700885952239  0.9967896305064764  0.16662050138145007          1.0000   
         H         H         1.0       0.8090515187777731  0.04331209071455788           0.21561148087568563          1.0000   
         H         H         1.0       0.8677550788353903  0.10932489550160973           0.19648442238116895          1.0000   
         C         C         1.0       0.7337389462203968  0.9515854910138957  0.23588155635584154          1.0000   
         C         C         1.0       0.7585167356718318  0.9695529814115509  0.20718673209709698          1.0000   
         C         C         1.0       0.7410141278824948  0.9768137924225674  0.18086284344514744          1.0000   
         C         C         1.0       0.7038584080875571  0.9711899297679655  0.184097488928135  1.0000   
         C         C         1.0       0.6817125589179467  0.9564953136689403  0.21359930698626164          1.0000   
         C         C         1.0       0.698428504521523   0.9488062332515343  0.2404039409513967 1.0000   
         C         C         1.0       0.7991171082401171  0.9728306985717381  0.20108238192759934          1.0000   
         C         C         1.0       0.8207382193014012  0.9670553912826177  0.232819065054472  1.0000   
         C         C         1.0       0.840586723061761   0.948672510544641   0.22713939885326634          1.0000   
         C         C         1.0       0.8603246522683504  0.9443236228023246  0.25444842706973975          1.0000   
         C         C         1.0       0.860218235082529   0.9574273218569602  0.28650214408051633          1.0000   
         C         C         1.0       0.8395000138832129  0.9750651781489164  0.2911459506704284 1.0000   
         C         C         1.0       0.8237920691311493  0.9835228703722358  0.2653851282445478 1.0000   
         C         C         1.0       0.7871045513277419  0.9398463918606653  0.14003637291912271          1.0000   
         C         C         1.0       0.7654376781403539  0.9075619151314858  0.11843379244410325          1.0000   
         C         C         1.0       0.732619853850179   0.8730057167952878  0.13123120342560568          1.0000   
         C         C         1.0       0.7265369893322323  0.8694868892741195  0.16523048359908388          1.0000   
         C         C         1.0       0.7509540617552293  0.8993616731979914  0.18634764359069786          1.0000   
         C         C         1.0       0.781463884893887   0.935911698379382   0.17563046176473718          1.0000   
         C         C         1.0       0.697211473934078   0.8462028259794155  0.10520754486643705          1.0000   
         C         C         1.0       0.6650634577773605  0.9299364612113352  0.08487824913679676          1.0000   
         C         C         1.0       0.6869485689017227  0.9242910608238033  0.06136765656338139          1.0000   
         C         C         1.0       0.695235307803971   0.8970285598741029  0.06599316250228737          1.0000   
         C         C         1.0       0.6839163339394216  0.8752479683031504  0.0950819347080843 1.0000   
         C         C         1.0       0.6603673794601488  0.878973851318888   0.11820135951423347          1.0000   
         C         C         1.0       0.6508009032158768  0.9063286376113527  0.1131699272043131 1.0000   
         C         C         1.0       0.6606729974360824  0.804801680026143   0.11877450799249056          1.0000   
         C         C         1.0       0.6643503624106198  0.7787514370036359  0.13717200137245986          1.0000   
         C         C         1.0       0.6316909607747231  0.7456332830999831  0.14827370632810669          1.0000   
         C         C         1.0       0.593083394057976   0.7333779010991905  0.13594194129896417          1.0000   
         C         C         1.0       0.5904388193460014  0.7559301272376332  0.11277170082936462          1.0000   
         C         C         1.0       0.625039326104508   0.7909069229914737  0.10358700862471105          1.0000   
         C         C         1.0       0.6965953927560791  0.8212534502778249  0.041978903502349674         1.0000   
         C         C         1.0       0.7011711204395326  0.7970309847968698  0.021078312693821877         1.0000   
         C         C         1.0       0.727539732975033   0.7870447423633693  0.02918436007830083          1.0000   
         C         C         1.0       0.7516822558243993  0.803001528514445   0.058225286018846134         1.0000   
         C         C         1.0       0.7443604857843445  0.824013969677253   0.08088181212387502          1.0000   
         C         C         1.0       0.7152849106902143  0.8318318542089677  0.07510754978786749          1.0000   
         H         H         1.0       0.7469145995789856  0.9434913611786402  0.2547328281272682 1.0000   
         H         H         1.0       0.755349945949113   0.9887798123020863  0.15744225000806814          1.0000   
         H         H         1.0       0.689852482834618   0.9761572194376695  0.1652049286022662 1.0000   
         H         H         1.0       0.6809311944916894  0.9377854181254964  0.26441098308659255          1.0000   
         H         H         1.0       0.8445089593838362  0.9427780201006628  0.20079189688505122          1.0000   
         H         H         1.0       0.8695889440102184  0.9239683232174264  0.24957182306859924          1.0000   
         H         H         1.0       0.8423320538828144  0.9893237957267131  0.314145910955158  1.0000   
         H         H         1.0       0.8122131750557489  0.001407760174259698         0.2675080498776376 1.0000   
         H         H         1.0       0.8093856596488221  0.967018445132253   0.13037594498905547          1.0000   
         H         H         1.0       0.7741083160479161  0.9137687246079663  0.0910933778520072 1.0000   
         H         H         1.0       0.7021525743555199  0.8435608450378683  0.1772321677849479 1.0000   
         H         H         1.0       0.7437446370460343  0.8946776939072547  0.21324085092863684          1.0000   
         H         H         1.0       0.6995677410337597  0.9431409127215886  0.03871721828179964          1.0000   
         H         H         1.0       0.7164991413976433  0.896445834266134   0.0492518133284674 1.0000   
         H         H         1.0       0.6532681458957041  0.8663586127578318  0.1423862100025843 1.0000   
         H         H         1.0       0.6328559150765455  0.9085315927575376  0.13300227262312844          1.0000   
         H         H         1.0       0.6921579527523141  0.7850118881609399  0.14885636903416202          1.0000   
         H         H         1.0       0.6359827729659089  0.7276102368885654  0.1645512432171137 1.0000   
         H         H         1.0       0.5642301897931722  0.7436668550142677  0.09850102277103658          1.0000   
         H         H         1.0       0.6199198547492615  0.8033826356666676  0.08349156902803156          1.0000   
         H         H         1.0       0.6734092605304639  0.8271000007102236  0.03550115802805531          1.0000   
         H         H         1.0       0.6815165517581216  0.7849027043085245  0.0002695540148347497        1.0000   
         H         H         1.0       0.7718458523527123  0.7949501686648264  0.06590022897845382          1.0000   
         H         H         1.0       0.7622070714597491  0.8331087036404753  0.10538597080318612          1.0000   
         C         C         1.0       0.648497926234885   0.8147854752394206  0.24053393311684065          1.0000   
         C         C         1.0       0.6356177760971691  0.778852458578002   0.24914561587689021          1.0000   
         C         C         1.0       0.6508984936653395  0.7716351756409313  0.2773971894431259 1.0000   
         C         C         1.0       0.6841916179169818  0.8028409048307257  0.2958501650554858 1.0000   
         C         C         1.0       0.6967650370164573  0.8400869444020373  0.286093521678194  1.0000   
         C         C         1.0       0.680266652499969   0.8449675967576527  0.2581961627306995 1.0000   
         H         H         1.0       0.6116720847046405  0.7556885544587822  0.23226014401143658          1.0000   
         H         H         1.0       0.6372673826368759  0.7417319882009578  0.28461811079147853          1.0000   
         H         H         1.0       0.7191055629740377  0.8658642563206335  0.29980125959531   1.0000   
         H         H         1.0       0.6929239289166101  0.8738457527866763  0.25079868531913113          1.0000   
         C         C         1.0       0.7712634157463294  0.8320276981514007  0.3058157415054686 1.0000   
         C         C         1.0       0.7480048347716253  0.8257605279278458  0.3346520342642016 1.0000   
         C         C         1.0       0.7684781588653022  0.847877717864544   0.3631562712189125 1.0000   
         C         C         1.0       0.8104553460084405  0.8786417443202046  0.36012351495048245          1.0000   
         C         C         1.0       0.8319899230978468  0.8835510040226894  0.33162967139581534          1.0000   
         C         C         1.0       0.8112353537855147  0.8582733583499474  0.3035697561582906 1.0000   
         C         C         1.0       0.698893654216503   0.7975116465505365  0.33147147876615946          1.0000   
         C         C         1.0       0.6980238510780322  0.75946821932404    0.33842002992433473          1.0000   
         C         C         1.0       0.6938735599956514  0.7463241706881678  0.37137578648730957          1.0000   
         C         C         1.0       0.694087603685365   0.7148682353260599  0.37947168564554146          1.0000   
         C         C         1.0       0.6992131233387775  0.6951230453536411  0.3558502198822491 1.0000   
         C         C         1.0       0.7070122067326499  0.7088921617840819  0.3217723181895218 1.0000   
         C         C         1.0       0.703897344362932   0.7392982333122062  0.3136232386151093 1.0000   
         C         C         1.0       0.6797161633805332  0.8378148958000804  0.3690205298042927 1.0000   
         C         C         1.0       0.6524548438337928  0.8388802148371823  0.3904118779537135 1.0000   
         C         C         1.0       0.6162652975860956  0.8057323323466665  0.4006355422859779 1.0000   
         C         C         1.0       0.6029600912779773  0.7723183429610333  0.3820138323027684 1.0000   
         C         C         1.0       0.6303894484692121  0.7725179252565257  0.35863904458394447          1.0000   
         C         C         1.0       0.6703966957161841  0.8034093025862392  0.35622474758279316          1.0000   
         C         C         1.0       0.5902196873574161  0.8024053846540321  0.43516305577802866          1.0000   
         C         C         1.0       0.66579587473714    0.8857279673650872  0.5115008697062242 1.0000   
         C         C         1.0       0.6298262352457835  0.8816095250062896  0.505133424424091  1.0000   
         C         C         1.0       0.6065499781668674  0.8558548882143943  0.4799768807673841 1.0000   
         C         C         1.0       0.6180461688850027  0.8345687149245801  0.46272205903630953          1.0000   
         C         C         1.0       0.652713241145054   0.8370546415298564  0.4722059709428593 1.0000   
         C         C         1.0       0.6774447899142851  0.863612761762214   0.49432533236400045          1.0000   
         C         C         1.0       0.5751577853082561  0.7644404280559761  0.4573634034390291 1.0000   
         C         C         1.0       0.5962058781825421  0.7473197343688084  0.45572057683016143          1.0000   
         C         C         1.0       0.5808741253042421  0.7124679038345175  0.4701873736114158 1.0000   
         C         C         1.0       0.5478790486807645  0.694916521606043   0.4914365031343996 1.0000   
         C         C         1.0       0.5294561990183629  0.7145249377333898  0.49576424981511336          1.0000   
         C         C         1.0       0.542699162008562   0.7489667374497472  0.4797371504130933 1.0000   
         C         C         1.0       0.5176823209093104  0.7707588341275056  0.41009042346752367          1.0000   
         C         C         1.0       0.4829142950319764  0.7706079687963437  0.4095209598935702 1.0000   
         C         C         1.0       0.4865202932387532  0.8053150808363145  0.40872626290807956          1.0000   
         C         C         1.0       0.524383007531784   0.83941665251568    0.4076936419620686 1.0000   
         C         C         1.0       0.5585099586694396  0.8396297266606472  0.4118312825756544 1.0000   
         C         C         1.0       0.5548586258363843  0.80420878885657    0.4187900518504538 1.0000   
         H         H         1.0       0.758213024618904   0.812766573815274   0.2843155204147175 1.0000   
         H         H         1.0       0.7540793561720048  0.8468941976323611  0.3859222607045906 1.0000   
         H         H         1.0       0.8221388421480479  0.8990071362582114  0.3816871423071395 1.0000   
         H         H         1.0       0.8298501389186734  0.8656941402627347  0.2789644626326917 1.0000   
         H         H         1.0       0.6875961547085606  0.7612860200889201  0.3907161527392753 1.0000   
         H         H         1.0       0.6861264306624408  0.7079949545965716  0.40563806690381105          1.0000   
         H         H         1.0       0.7133260090716266  0.6939264255947817  0.3029021947637611 1.0000   
         H         H         1.0       0.7093606157442355  0.7488503210796527  0.28766508848835043          1.0000   
         H         H         1.0       0.7104346052460351  0.8646743181369259  0.36626640858596776          1.0000   
         H         H         1.0       0.6606027363831962  0.8649758751247919  0.4032995852173443 1.0000   
         H         H         1.0       0.572323741528347   0.7492814426549738  0.3852981422659883 1.0000   
         H         H         1.0       0.6191419853176923  0.7451140812860004  0.34604812323875234          1.0000   
         H         H         1.0       0.6204360625294137  0.8978257096266659  0.5166518385952801 1.0000   
         H         H         1.0       0.5756079568396361  0.8465217579014253  0.47799797880193207          1.0000   
         H         H         1.0       0.6600816357231574  0.8197257462614088  0.46115572831046187          1.0000   
         H         H         1.0       0.7046293415308825  0.8662181392032701  0.5024312920698266 1.0000   
         H         H         1.0       0.6245774337445852  0.757541334108732   0.4412204146443203 1.0000   
         H         H         1.0       0.5956795329815309  0.6984056790332278  0.4645006923599127 1.0000   
         H         H         1.0       0.4998324377151852  0.7007799851964637  0.5079331445490545 1.0000   
         H         H         1.0       0.5269735489916361  0.7633340413872424  0.47962669832186333          1.0000   
         H         H         1.0       0.5149774591158626  0.7448617503764184  0.4079334720091791 1.0000   
         H         H         1.0       0.45505486180230376           0.7437107874131483 0.4087052448888119 1.0000   
         H         H         1.0       0.5295848878098515  0.8673583614609109  0.4067175745800833 1.0000   
         H         H         1.0       0.5874802971109431  0.8669506842037819  0.4104505538979894 1.0000   
         C         C         1.0       0.20068146823745978           0.35895180091756856          0.7416520892283436 1.0000   
         C         C         1.0       0.16087320797128182           0.34534064978397494          0.7376719012645497 1.0000   
         C         C         1.0       0.13834648244039058           0.3133381267414717 0.7189396647985412 1.0000   
         C         C         1.0       0.1518022389970571  0.2914258511119727  0.7060483673656853 1.0000   
         C         C         1.0       0.19259625617581685           0.30377263726635023          0.7132028406649435 1.0000   
         C         C         1.0       0.21729548154520664           0.33860796483064926          0.7301670496126367 1.0000   
         H         H         1.0       0.14929285401510578           0.3624346666452922 0.7411263380669104 1.0000   
         H         H         1.0       0.10970278075099156           0.3059977302398863 0.7122873413727513 1.0000   
         H         H         1.0       0.2051899126070369  0.2886232179964119  0.7026852336303984 1.0000   
         H         H         1.0       0.2505797239651879  0.3491422989511984  0.7334490844804209 1.0000   
         C         C         1.0       0.05892628604225614           0.2311037528055724 0.7056934965817768 1.0000   
         C         C         1.0       0.07992699145058009           0.24554936005541586          0.674499518468107  1.0000   
         C         C         1.0       0.05824803582930216           0.24186211616992284          0.6454351475523894 1.0000   
         C         C         1.0       0.018829661970724443          0.22687207037680368          0.6472800068925002 1.0000   
         C         C         1.0       0.9977147417136916  0.20993791740290896           0.6770069289046659 1.0000   
         C         C         1.0       0.017365336080994664          0.21128667316384528          0.7059027847880974 1.0000   
         C         C         1.0       0.1274304321740312  0.2646261103806046  0.6747306177080374 1.0000   
         C         C         1.0       0.1271111889895277  0.22683886773878162           0.6677062602262477 1.0000   
         C         C         1.0       0.11991872169769906           0.21054339436720768          0.6349932013347874 1.0000   
         C         C         1.0       0.1298632220366765  0.18341502187279557           0.6270102116326219 1.0000   
         C         C         1.0       0.14633782353696678           0.17361455936672157          0.6527858974733534 1.0000   
         C         C         1.0       0.14522963007267045           0.18380115730065608          0.6853577553762369 1.0000   
         C         C         1.0       0.13386346993523046           0.2087676434296347 0.6927958706811213 1.0000   
         C         C         1.0       0.14206057306676156           0.32153441849326203          0.6334270918789294 1.0000   
         C         C         1.0       0.15653404288186035           0.3406728171541925 0.6040374209617204 1.0000   
         C         C         1.0       0.18042188686249544           0.3342342733415024 0.5837256686746167 1.0000   
         C         C         1.0       0.19773918051215034           0.31615438931263506          0.5983090990294082 1.0000   
         C         C         1.0       0.18525896966839528           0.3018934043701529 0.6303318606137892 1.0000   
         C         C         1.0       0.15263018656228927           0.2969774822753025 0.6457980171084963 1.0000   
         C         C         1.0       0.18039452022242713           0.3406548293430721 0.5453697724448473 1.0000   
         C         C         1.0       0.05928690366410564           0.23252935770933886          0.5336598650545481 1.0000   
         C         C         1.0       0.06461392195727177           0.2672293001372585 0.5293066791777145 1.0000   
         C         C         1.0       0.10122388396257233           0.30251285485011625          0.5320118055803639 1.0000   
         C         C         1.0       0.13555746375308744           0.3020821299617055 0.5372589862466829 1.0000   
         C         C         1.0       0.130071660936542   0.26554891129815883           0.5403817383906918 1.0000   
         C         C         1.0       0.09246853736738046           0.23169302420758284          0.540462853777871  1.0000   
         C         C         1.0       0.2158981621464286  0.3403962146954611  0.5226129063983139 1.0000   
         C         C         1.0       0.25610079861308016           0.3615586559444872 0.5317144563512254 1.0000   
         C         C         1.0       0.2851043479955827  0.35827972192577207           0.5146383454519773 1.0000   
         C         C         1.0       0.2725850178536318  0.3303913733789737  0.49102379650354694          1.0000   
         C         C         1.0       0.23323664416146692           0.3098366202392716 0.4798905867881172 1.0000   
         C         C         1.0       0.20758519071055131           0.31944825685450623          0.494345504001028  1.0000   
         C         C         1.0       0.18062523960801233           0.39059358365370117          0.5075121693661928 1.0000   
         C         C         1.0       0.19829667658294828           0.42778334283683633          0.4976381946208837 1.0000   
         C         C         1.0       0.22676555080855484           0.4566508444071262 0.5180322685339457 1.0000   
         C         C         1.0       0.2342741405650867  0.45046426579321985           0.5486006790081066 1.0000   
         C         C         1.0       0.21862226242302252           0.4138722944953359 0.5582865976440158 1.0000   
         C         C         1.0       0.19173554738100548           0.38310737425017943          0.538089753942553  1.0000   
         H         H         1.0       0.07777823109181159           0.2331257428127241 0.7262191767835215 1.0000   
         H         H         1.0       0.07682512656100075           0.2553465964021776 0.6220920159186663 1.0000   
         H         H         1.0       0.002870531449522984          0.22536940562044636          0.6251697234610127 1.0000   
         H         H         1.0       0.0008160625071269578         0.19519710733398374          0.726910359542473  1.0000   
         H         H         1.0       0.11094739196728605           0.220412143515132  0.6131438125311314 1.0000   
         H         H         1.0       0.1328774606181727  0.17528136771742053           0.6012797049715858 1.0000   
         H         H         1.0       0.1603080625400747  0.17695873934415368           0.7037780429850398 1.0000   
         H         H         1.0       0.13473198666470312           0.2168131075292404 0.7191003512286002 1.0000   
         H         H         1.0       0.11980074744024065           0.32671614984689873          0.6447388334858521 1.0000   
         H         H         1.0       0.14074855933511288           0.3513930227510929 0.5960862699850812 1.0000   
         H         H         1.0       0.22019673861529043           0.31271731104705536          0.5838109771051562 1.0000   
         H         H         1.0       0.1970643586353849  0.28586315408508467           0.6402326232505818 1.0000   
         H         H         1.0       0.03956678679762111           0.2712716745260027 0.5316071710120034 1.0000   
         H         H         1.0       0.10142404669249014           0.3280745063679449 0.5348062748841454 1.0000   
         H         H         1.0       0.1562461999456732  0.26443485749220275           0.5484599614238818 1.0000   
         H         H         1.0       0.09272598236754101           0.20756630689140182          0.5412804121808827 1.0000   
         H         H         1.0       0.2671290348310548  0.38279839948385136           0.5521357993634433 1.0000   
         H         H         1.0       0.3108046621051111  0.366639609207772   0.5292666820859525 1.0000   
         H         H         1.0       0.2221894102205686  0.28727602086920423           0.4624301291518602 1.0000   
         H         H         1.0       0.17661987421996053           0.30325471195305825          0.48549423531849734          1.0000   
         H         H         1.0       0.16037682609392637           0.3658494896343886 0.491167341326259  1.0000   
         H         H         1.0       0.19168313860485578           0.4324163198064361 0.471513971795467  1.0000   
         H         H         1.0       0.2528950636762774  0.47405960176108924           0.5657177907703543 1.0000   
         H         H         1.0       0.22479632258184895           0.40967286411879217          0.5833138686067506 1.0000   
         C         C         1.0       0.2571163869040351  0.3368272290654367  0.8526325561925466 1.0000   
         C         C         1.0       0.2982700095144044  0.36594406494982173           0.8517533838359579 1.0000   
         C         C         1.0       0.32611137053046685           0.3587099987531927 0.8410738547966508 1.0000   
         C         C         1.0       0.31452749837915966           0.3207856326992046 0.8308397531907936 1.0000   
         C         C         1.0       0.273231369614291   0.29447809073195624           0.8305230666642742 1.0000   
         C         C         1.0       0.24421079180861796           0.3002742357565668 0.8436702965610853 1.0000   
         H         H         1.0       0.30811688310607965           0.39508164223363496          0.8606725777823602 1.0000   
         H         H         1.0       0.3568844754929946  0.3800213173841043  0.8460151150994621 1.0000   
         H         H         1.0       0.26243210805112477           0.2654485848545901 0.8222346256937587 1.0000   
         H         H         1.0       0.2122607364999552  0.276436160695287   0.8470940525609937 1.0000   
         C         C         1.0       0.3035965690036654  0.24373940622253076           0.8578720061190009 1.0000   
         C         C         1.0       0.33139914741422466           0.26548956588457145          0.8317148999227761 1.0000   
         C         C         1.0       0.3461204102591615  0.247016690013016   0.8150344273892843 1.0000   
         C         C         1.0       0.34559954738286036           0.2162862558162375 0.8282024700913208 1.0000   
         C         C         1.0       0.3220738943468031  0.19812194935260385           0.8566001879914533 1.0000   
         C         C         1.0       0.3011619439781021  0.21237554741034442           0.8722587429426544 1.0000   
         C         C         1.0       0.34498205462616716           0.3076580590113809 0.8203685387385534 1.0000   
         C         C         1.0       0.38878623596060474           0.3317589156158222 0.837607524368128  1.0000   
         C         C         1.0       0.4203652765246561  0.33604222799499955           0.8194451512469136 1.0000   
         C         C         1.0       0.4583693023663354  0.35298323865943304           0.8316519742282816 1.0000   
         C         C         1.0       0.46353310960254435           0.3675658127453593 0.8639762774180538 1.0000   
         C         C         1.0       0.43283936720217    0.36355285747934174           0.8825765233164812 1.0000   
         C         C         1.0       0.3950220465981807  0.3459020639189536  0.8692885413157149 1.0000   
         C         C         1.0       0.32396567642114243           0.28624630989481636          0.759168128341241  1.0000   
         C         C         1.0       0.3262479050777585  0.2919669021100585  0.7254465836975366 1.0000   
         C         C         1.0       0.34822209729018305           0.32756246887937973          0.7115611092483258 1.0000   
         C         C         1.0       0.36925411837318456           0.3577196396654754 0.7343771587413929 1.0000   
         C         C         1.0       0.3704711610615466  0.3529507761139118  0.7679677154012435 1.0000   
         C         C         1.0       0.34752944667765656           0.31607157597969743          0.7812653699223666 1.0000   
         C         C         1.0       0.3508195699346575  0.33415793178115    0.6721368755436875 1.0000   
         C         C         1.0       0.4734872547967277  0.3645894360130955  0.6654023804810582 1.0000   
         C         C         1.0       0.44373631609096986           0.32731385037839056          0.6709622524263524 1.0000   
         C         C         1.0       0.4042408174394048  0.31729546073958353           0.6712447783613232 1.0000   
         C         C         1.0       0.3960781447254421  0.3457937413456096  0.6657358125455995 1.0000   
         C         C         1.0       0.428769132857243   0.38420387051337107           0.6611601458973169 1.0000   
         C         C         1.0       0.4665239666350883  0.39256115351675913           0.6601222649288707 1.0000   
         C         C         1.0       0.34419929394476045           0.3659757651436875 0.6578005035539141 1.0000   
         C         C         1.0       0.323846496532634   0.37857111635152585           0.6772790321616662 1.0000   
         C         C         1.0       0.31887065974214107           0.40505286048332095          0.662853655307951  1.0000   
         C         C         1.0       0.3254217291915435  0.41468302918277994           0.629280664619364  1.0000   
         C         C         1.0       0.3486609103353489  0.4037629352149774  0.6108555181619235 1.0000   
         C         C         1.0       0.35538476948988573           0.3776276677495593 0.6241928318161284 1.0000   
         C         C         1.0       0.31984751380271853           0.2742148573524122 0.6272592675726418 1.0000   
         C         C         1.0       0.2856158103041272  0.23937127899288269           0.6173665379151471 1.0000   
         C         C         1.0       0.24738615514140297           0.22766590539827794          0.629256942041466  1.0000   
         C         C         1.0       0.24428286075716055           0.2514521280600029 0.6505837655368737 1.0000   
         C         C         1.0       0.2771115591988368  0.2831576704817464  0.6630747157322369 1.0000   
         C         C         1.0       0.31538740508044416           0.29570661307933377          0.6521000373811852 1.0000   
         H         H         1.0       0.2879811886134564  0.2534044270154585  0.8757563039435805 1.0000   
         H         H         1.0       0.36458897544106256           0.2597786185277915 0.7923763311355162 1.0000   
         H         H         1.0       0.3630898502044847  0.20575341848392656           0.8190349549764152 1.0000   
         H         H         1.0       0.28583643651867974           0.20072999084618282          0.8959444778993385 1.0000   
         H         H         1.0       0.4155572971522168  0.3256808695244071  0.7942285441108708 1.0000   
         H         H         1.0       0.48070484987171425           0.34908408679540975          0.8203283528160159 1.0000   
         H         H         1.0       0.43537011086937916           0.37090486752255186          0.9093720154932787 1.0000   
         H         H         1.0       0.3713666926773091  0.3418092350982759  0.8847947886577591 1.0000   
         H         H         1.0       0.30300694846604515           0.2573138790015005 0.7708947842152151 1.0000   
         H         H         1.0       0.30846269620094885           0.2647790489515484 0.711920922936901  1.0000   
         H         H         1.0       0.38178610032474886           0.3850360480036742 0.7229825369821823 1.0000   
         H         H         1.0       0.39238401771116044           0.3801555373447964 0.7819877788275519 1.0000   
         H         H         1.0       0.44965745655452033           0.30499954395268175          0.6767714312255316 1.0000   
         H         H         1.0       0.3789398236119641  0.28716924910453656           0.6729943932357518 1.0000   
         H         H         1.0       0.42784003036874235           0.4088908952365449 0.6629291864542282 1.0000   
         H         H         1.0       0.4941854719146042  0.42148028322550496           0.6555592017078979 1.0000   
         H         H         1.0       0.3181703328165132  0.37494519288134354           0.7043336961559464 1.0000   
         H         H         1.0       0.3065154100024123  0.4155586227254176  0.6801647726680173 1.0000   
         H         H         1.0       0.3607247145523769  0.414819513213591   0.5859993603291307 1.0000   
         H         H         1.0       0.3688778512866929  0.36769689112900855           0.6084236015365528 1.0000   
         H         H         1.0       0.3474463577371318  0.28388019673038206           0.614967706023069  1.0000   
         H         H         1.0       0.2915512123580412  0.2262663927406764  0.5968078060361285 1.0000   
         H         H         1.0       0.21482240049974768           0.243105773968557  0.6572845480599075 1.0000   
         H         H         1.0       0.2723971971497596  0.29528053562832196           0.685127235763436  1.0000   
         C         C         1.0       0.4785951930195115  0.13545983348992893           0.5878981212551369 1.0000   
         C         C         1.0       0.4491159405508383  0.12899856681926586           0.609280842426694  1.0000   
         C         C         1.0       0.4332344644370963  0.15119812490211282           0.6101422365479857 1.0000   
         C         C         1.0       0.4529593003874128  0.18616080954015019           0.5938399752539476 1.0000   
         C         C         1.0       0.48554132304343545           0.19534114117739873          0.5729594903993201 1.0000   
         C         C         1.0       0.49497208244513047           0.16781872824104477          0.5668953995698843 1.0000   
         H         H         1.0       0.43366091631517895           0.10395487586498771          0.6251052945633868 1.0000   
         H         H         1.0       0.405853927367584   0.14030704960075324           0.6269445775144522 1.0000   
         H         H         1.0       0.4993764207107443  0.2212463130468708  0.5593442410703394 1.0000   
         H         H         1.0       0.5189582703141671  0.17436566203580747           0.5483336216636944 1.0000   
         C         C         1.0       0.5093526008167544  0.2752353446282753  0.610095298267198  1.0000   
         C         C         1.0       0.47007876198260035           0.25864747647109315          0.595076896335131  1.0000   
         C         C         1.0       0.4613147458663975  0.28514609530485086           0.5854279939080868 1.0000   
         C         C         1.0       0.4852322713636644  0.323577480422147   0.5932474519458385 1.0000   
         C         C         1.0       0.5211831168781642  0.3382335937982385  0.6098677918693908 1.0000   
         C         C         1.0       0.5348379970965378  0.3145630288788267  0.6164755757001932 1.0000   
         C         C         1.0       0.43665775452496663           0.2136330307291483 0.5957697967492563 1.0000   
         C         C         1.0       0.4138666005695336  0.21104030206483199           0.6297893335730612 1.0000   
         C         C         1.0       0.3812355130505105  0.21403445437019197           0.6303039120676311 1.0000   
         C         C         1.0       0.36233432096281315           0.21386739165515117          0.6595989746846943 1.0000   
         C         C         1.0       0.37666616482728693           0.21083170288897726          0.6904637051653147 1.0000   
         C         C         1.0       0.4091467655937308  0.20882885801587    0.6907134263099572 1.0000   
         C         C         1.0       0.42879495155169844           0.209336831617782  0.6619560283887332 1.0000   
         C         C         1.0       0.41987653871171016           0.2135703593726058 0.533946353397066  1.0000   
         C         C         1.0       0.3944565439925658  0.20196793380666517           0.505957627584266  1.0000   
         C         C         1.0       0.35308513956946247           0.17299668923952244          0.5095039101443871 1.0000   
         C         C         1.0       0.3395709050363453  0.1558192531665026  0.5405546499375118 1.0000   
         C         C         1.0       0.36535894376042244           0.16505334859568277          0.5666279330270539 1.0000   
         C         C         1.0       0.4055571224492383  0.19678453257860132           0.5638925917583006 1.0000   
         C         C         1.0       0.3225036375741618  0.163002199617505   0.47788693911547264          1.0000   
         C         C         1.0       0.31099922559630194           0.26196594321176936          0.49738406897172227          1.0000   
         C         C         1.0       0.3392509046625154  0.26611846084486857           0.47181211466817113          1.0000   
         C         C         1.0       0.34162033866287983           0.23471525298427884          0.46382984075445066          1.0000   
         C         C         1.0       0.3191989980827142  0.19956533663563236           0.4814636310027076 1.0000   
         C         C         1.0       0.29614792631999776           0.1987173134423493 0.5089591182934017 1.0000   
         C         C         1.0       0.2910580933902879  0.2286561687086679  0.5156131291973913 1.0000   
         C         C         1.0       0.2791471934318472  0.12370277373406897           0.47688510134697804          1.0000   
         C         C         1.0       0.26951853943989673           0.0909069263606301 0.4955280397804202 1.0000   
         C         C         1.0       0.22829703697112294           0.06019173411921597          0.5016109909668882 1.0000   
         C         C         1.0       0.19688551411408883           0.06073127646196407          0.4855534005192806 1.0000   
         C         C         1.0       0.20682256644255886           0.09265232959258844          0.4674562997653132 1.0000   
         C         C         1.0       0.24736510245833163           0.12191001393608777          0.46185165747558476          1.0000   
         C         C         1.0       0.3476087883963318  0.17594465596736775           0.41301733559652304          1.0000   
         C         C         1.0       0.37191669413204553           0.17665811084844762          0.3868702746150932 1.0000   
         C         C         1.0       0.38828631375323147           0.15580963108547957          0.3903652548822743 1.0000   
         C         C         1.0       0.38427680460976    0.13735913892349413           0.42027934292612784          1.0000   
         C         C         1.0       0.36386289655153015           0.13939416166907279          0.4471610185017864 1.0000   
         C         C         1.0       0.34452517553380746           0.15936043433637817          0.4446491830511403 1.0000   
         H         H         1.0       0.5188619744924975  0.25546583409689183           0.6156338495884796 1.0000   
         H         H         1.0       0.4331183635277216  0.27676454990851757           0.5732702644176885 1.0000   
         H         H         1.0       0.47517871386439    0.3423432181750393  0.5862555429513058 1.0000   
         H         H         1.0       0.5641754971297502  0.3273937298014811  0.6297426090205199 1.0000   
         H         H         1.0       0.370928857442981   0.2200552117889214  0.608018591968954  1.0000   
         H         H         1.0       0.3376005187311044  0.21662490331519452           0.6544581745512461 1.0000   
         H         H         1.0       0.4201720808834707  0.2031366713359326  0.7134823824791623 1.0000   
         H         H         1.0       0.45567327323992507           0.2096926126321734 0.6655470703349353 1.0000   
         H         H         1.0       0.4511238960897676  0.23730733383357963           0.5321785573530777 1.0000   
         H         H         1.0       0.4079300985885636  0.21699267698917554           0.482014061991447  1.0000   
         H         H         1.0       0.3084092487038768  0.13330006438835182           0.5473452919974489 1.0000   
         H         H         1.0       0.3566821974668266  0.14732399005532087           0.589245032370434  1.0000   
         H         H         1.0       0.35940548678851636           0.2943299830773574 0.4587556308068916 1.0000   
         H         H         1.0       0.3598139696717909  0.2380614728649732  0.4419830088010385 1.0000   
         H         H         1.0       0.27945271065995386           0.17206674091292418          0.5253126779127815 1.0000   
         H         H         1.0       0.2739971122853987  0.22661355870985891           0.5373515097060331 1.0000   
         H         H         1.0       0.29106384420575965           0.08696915712062689          0.507052456680851  1.0000   
         H         H         1.0       0.2204784121652625  0.04153032728683148           0.5213315520140692 1.0000   
         H         H         1.0       0.18590450297495123           0.09718197626740926          0.4533902989972798 1.0000   
         H         H         1.0       0.2554584876147681  0.1457221125942733  0.4436348252323698 1.0000   
         H         H         1.0       0.33315807119930946           0.18967378822723144          0.4068359343348794 1.0000   
         H         H         1.0       0.37129769734720475           0.18493794485792275          0.35958572405943373          1.0000   
         H         H         1.0       0.39519030449089193           0.11934392734666827          0.425076957269502  1.0000   
         H         H         1.0       0.3606757540196674  0.12315368087381173           0.47018557475835365          1.0000   
         C         C         1.0       0.015553875397352252          0.08046124932442589          0.8842376575216345 1.0000   
         C         C         1.0       0.9855516050078413  0.08730366207309158           0.8849531196803123 1.0000   
         C         C         1.0       0.9957632711479449  0.1235669463949738  0.8765086987437952 1.0000   
         C         C         1.0       0.03292228810914706           0.15264595385841195          0.8640493829206664 1.0000   
         C         C         1.0       0.0627739562494724  0.14464918471380706           0.8639725861591486 1.0000   
         C         C         1.0       0.05478953882983218           0.10817261425860478          0.8728914736518079 1.0000   
         H         H         1.0       0.9520760059343993  0.06493722504484567           0.8848389505979497 1.0000   
         H         H         1.0       0.970022118100114   0.12453000557581106           0.8734204403697399 1.0000   
         H         H         1.0       0.09151004012840129           0.16386277282744055          0.8512998485267084 1.0000   
         H         H         1.0       0.07977703916869358           0.10507938039775924          0.8709605164319317 1.0000   
         C         C         1.0       0.10567375840475866           0.23883136102567307          0.8730034580973036 1.0000   
         C         C         1.0       0.08420785835808486           0.22839575809902143          0.8444979571593502 1.0000   
         C         C         1.0       0.09798969504252335           0.2544818177273539 0.8175884230320748 1.0000   
         C         C         1.0       0.13406549889591396           0.28736257276166594          0.8175827098182699 1.0000   
         C         C         1.0       0.15494637238003311           0.299542664193382  0.8473488833990053 1.0000   
         C         C         1.0       0.1394242149367076  0.27459468031588    0.8754604540517629 1.0000   
         C         C         1.0       0.04018043695078201           0.18875452614128133          0.8422518927120441 1.0000   
         C         C         1.0       0.012708625329388212          0.20248999651970345          0.8585831998255558 1.0000   
         C         C         1.0       0.9988573283818396  0.22008980453702    0.8397176829342176 1.0000   
         C         C         1.0       0.9848492613628986  0.24137872707598182           0.8542231594682052 1.0000   
         C         C         1.0       0.9864063013926448  0.24564899051114564           0.8889155740920069 1.0000   
         C         C         1.0       0.9944195838776003  0.22364445770224436           0.9082521040218151 1.0000   
         C         C         1.0       0.008300986901108587          0.20402374070396614          0.8925665449471242 1.0000   
         C         C         1.0       0.05338186473586418           0.16816065027232338          0.784643324820401  1.0000   
         C         C         1.0       0.042916456215270626          0.13705482112167933          0.7637407392743341 1.0000   
         C         C         1.0       0.00363578592703373           0.10608028300013442          0.7606449572327114 1.0000   
         C         C         1.0       0.9745941218933947  0.10933475037261177           0.7786553286293185 1.0000   
         C         C         1.0       0.9856588090747247  0.13989621105908284           0.8007989481068493 1.0000   
         C         C         1.0       0.025758043216638438          0.16712836680778723          0.8068143723079827 1.0000   
         C         C         1.0       0.993682523614635   0.07287372171463957           0.735326381089945  1.0000   
         C         C         1.0       0.9444352187183923  0.1162924359516216  0.6651144175806483 1.0000   
         C         C         1.0       0.9833115194178919  0.12737231206231    0.6611091663722406 1.0000   
         C         C         1.0       0.9993781036069664  0.11208992600292417           0.6823770288555616 1.0000   
         C         C         1.0       0.9741666415051358  0.08223366424057366           0.7050596357428471 1.0000   
         C         C         1.0       0.9335584923353168  0.06726409152518364           0.7034914290404499 1.0000   
         C         C         1.0       0.9185872331650272  0.0849854314696785  0.6855610317124402 1.0000   
         C         C         1.0       0.9600008704407242  0.03017124987024644           0.7504724524901522 1.0000   
         C         C         1.0       0.9514660127358907  0.020923859360460817         0.7845207806787516 1.0000   
         C         C         1.0       0.9257213931586407  0.984600432944237   0.7962841923662747 1.0000   
         C         C         1.0       0.9023880872888095  0.9550180138326252  0.7723777801330688 1.0000   
         C         C         1.0       0.9085387112074532  0.9630889945556191  0.7381359721149965 1.0000   
         C         C         1.0       0.9380748179505675  0.999416820337927   0.7273222744892308 1.0000   
         C         C         1.0       0.046660766080355076          0.07169468449966776          0.698205522981488  1.0000   
         C         C         1.0       0.08285348676104885           0.076356825368042  0.6927737821440525 1.0000   
         C         C         1.0       0.10655978165895923           0.08106728411765118          0.7207613607557987 1.0000   
         C         C         1.0       0.08659178738071584           0.06828797727975111          0.751520026449429  1.0000   
         C         C         1.0       0.048584167746291484          0.06159804110787648          0.756195608653177  1.0000   
         C         C         1.0       0.030385699633297403          0.0680981750157259 0.7299371783041612 1.0000   
         H         H         1.0       0.09413591844348716           0.2219715765079455 0.8963372150783911 1.0000   
         H         H         1.0       0.07903043571067513           0.24632697732252803          0.7943328167702725 1.0000   
         H         H         1.0       0.14423814499573784           0.3076265254708076 0.7961698686843328 1.0000   
         H         H         1.0       0.15199681298813342           0.28488800651192153          0.899809036684904  1.0000   
         H         H         1.0       0.003544774111493343          0.22282498877626344          0.8126156144862889 1.0000   
         H         H         1.0       0.9824201061829326  0.2606347867949564  0.8378262044046308 1.0000   
         H         H         1.0       0.9943408920279324  0.22493907351398892           0.9364837533753652 1.0000   
         H         H         1.0       0.020429972265132434          0.19081508149853837          0.9067735770634782 1.0000   
         H         H         1.0       0.0842111873906886  0.18999240847528706           0.7902876450629831 1.0000   
         H         H         1.0       0.06767910122789086           0.13945942088488328          0.7499182989825718 1.0000   
         H         H         1.0       0.9416540905135892  0.08569478655276151           0.7762462924596233 1.0000   
         H         H         1.0       0.9645464987371565  0.14099273867579598           0.8176363635637012 1.0000   
         H         H         1.0       0.0018229082634824145         0.15137727118225366          0.6439892726642326 1.0000   
         H         H         1.0       0.031143569475116806          0.12521593664786462          0.6837857605439666 1.0000   
         H         H         1.0       0.9122551639106474  0.04783706794327158           0.7229227771063645 1.0000   
         H         H         1.0       0.886525224242392   0.0755639976828981  0.6855429863573546 1.0000   
         H         H         1.0       0.971854988759769   0.04395997463125645           0.8027310125529493 1.0000   
         H         H         1.0       0.9211871480471142  0.9780790551573025  0.8232343166975573 1.0000   
         H         H         1.0       0.8943787467590056  0.9416767596772537  0.7187313966522163 1.0000   
         H         H         1.0       0.9440547986908533  0.004056933338475233         0.6988663983906969 1.0000   
         H         H         1.0       0.03143067843924752           0.07337121667147284          0.6750435365999266 1.0000   
         H         H         1.0       0.09470225779579142           0.08109079492094651          0.6684377285031486 1.0000   
         H         H         1.0       0.10523500260955572           0.06734611684383074          0.7708186475840061 1.0000   
         H         H         1.0       0.035528411353128675          0.05888829932064698          0.7821490684274828 1.0000   
         C         C         1.0       0.9303626212972053  0.8794748516501718  0.7327027325081795 1.0000   
         C         C         1.0       0.9580149193724821  0.9189263655688866  0.7345491390914523 1.0000   
         C         C         1.0       0.9778723988185326  0.9398563444717936  0.7059642081803165 1.0000   
         C         C         1.0       0.9766067672771157  0.92000720267477    0.677114984263393  1.0000   
         C         C         1.0       0.9450114953562418  0.8811402223873483  0.6728137963538703 1.0000   
         C         C         1.0       0.9232399806625252  0.8618359608114832  0.7017270883486966 1.0000   
         H         H         1.0       0.9660450773331593  0.9319204175661314  0.7602371760072671 1.0000   
         H         H         1.0       0.9985164653873981  0.9704582918942548  0.7074741578867119 1.0000   
         H         H         1.0       0.941650487111455   0.8650098328268758  0.6509211008639862 1.0000   
         H         H         1.0       0.9003267441486237  0.8314357771814831  0.7034351087111751 1.0000   
         C         C         1.0       0.028451556565876283          0.8906272910716457 0.6519603582172968 1.0000   
         C         C         1.0       0.02026924908251763           0.9114133962310786 0.6306848095042882 1.0000   
         C         C         1.0       0.038740166378030974          0.9218243382587301 0.5984169560382351 1.0000   
         C         C         1.0       0.06812861088605893           0.915372709261025  0.5914913490980633 1.0000   
         C         C         1.0       0.07708871164572499           0.8961816891007579 0.6138150780740225 1.0000   
         C         C         1.0       0.05879523095286295           0.884961786840361  0.6429228308231046 1.0000   
         C         C         1.0       0.009098842561892494          0.9392345629883954 0.6472450393734315 1.0000   
         C         C         1.0       0.05339601657910727           0.9746495280799462 0.6584674335569808 1.0000   
         C         C         1.0       0.07712230859317569           0.0029963788843290207        0.6360391494763129 1.0000   
         C         C         1.0       0.11456861331082924           0.033404428348116744         0.6443696324032765 1.0000   
         C         C         1.0       0.1295906725152624  0.0353158318831297  0.676101902124466  1.0000   
         C         C         1.0       0.10552645189216589           0.007048010797832571         0.6994256557606067 1.0000   
         C         C         1.0       0.06849254947371979           0.9754861180369406 0.6901638842814802 1.0000   
         C         C         1.0       0.9635126894335547  0.9342869172431278  0.5969126330520914 1.0000   
         C         C         1.0       0.953210214253657   0.9533886896395476  0.5753539983585693 1.0000   
         C         C         1.0       0.9651347996954174  0.9912505521637245  0.581137859081603  1.0000   
         C         C         1.0       0.9808302470460721  0.005784607380401985         0.6124490299238468 1.0000   
         C         C         1.0       0.9874430634063434  0.9848440413817336  0.6349571195349786 1.0000   
         C         C         1.0       0.9864394360927586  0.9530689952104234  0.6244892962632528 1.0000   
         C         C         1.0       0.9799112754322755  0.018265307884091087         0.5486839248094094 1.0000   
         C         C         1.0       0.09647499303237012           0.02639070253357856          0.5328417685650877 1.0000   
         C         C         1.0       0.06155999345665209           0.9969209963721036 0.5164078462415617 1.0000   
         C         C         1.0       0.025872637239684727          0.994591841398179  0.5202699545047746 1.0000   
         C         C         1.0       0.023435785259012944          0.02327657856628118          0.5371917354072689 1.0000   
         C         C         1.0       0.05944751901376368           0.05268037412905424          0.5518420926628553 1.0000   
         C         C         1.0       0.09413402049293679           0.05360805657522283          0.550326217047326  1.0000   
         C         C         1.0       0.9828957417719049  0.058584467374040106         0.5538609302252075 1.0000   
         C         C         1.0       0.95609277254817    0.06312770642065968           0.573791911804896  1.0000   
         C         C         1.0       0.9612636596385695  0.09787875220556667           0.577872179164322  1.0000   
         C         C         1.0       0.9914439990756363  0.1294248513871554  0.5602090643662451 1.0000   
         C         C         1.0       0.017083094023479992          0.12610508151234734          0.5382789139580757 1.0000   
         C         C         1.0       0.01186075623715979           0.09054669990014297          0.5354694233668233 1.0000   
         C         C         1.0       0.9553323668375269  0.010299420806973991         0.4866944900494336 1.0000   
         C         C         1.0       0.9260042672905703  0.00016033909661916645       0.46204440882363074          1.0000   
         C         C         1.0       0.8871578023617027  0.9852015052357269  0.47289872109976794          1.0000   
         C         C         1.0       0.8764953227883784  0.9741725490568843  0.5063788833828613 1.0000   
         C         C         1.0       0.9051128997083293  0.9829185460666281  0.5296514329396165 1.0000   
         C         C         1.0       0.9459013248077139  0.0018616076085016253        0.520440892168954  1.0000   
         H         H         1.0       0.017485267274227473          0.8854894193362559 0.6775523426329526 1.0000   
         H         H         1.0       0.03677582103461935           0.9403512554313116 0.5845599268879037 1.0000   
         H         H         1.0       0.08394341284127767           0.9235136020049302 0.5670188180704082 1.0000   
         H         H         1.0       0.06795712637246153           0.871223259988432  0.6626978153236119 1.0000   
         H         H         1.0       0.06835425155905714           0.006133076794494707         0.6098355656516725 1.0000   
         H         H         1.0       0.12715881975604448           0.056279023379312454         0.6258417628869646 1.0000   
         H         H         1.0       0.11263063520342835           0.010971123863069643         0.7259032564877353 1.0000   
         H         H         1.0       0.05078313144785053           0.9527893532972559 0.7097294956421519 1.0000   
         H         H         1.0       0.9625827689670274  0.9101529015742781  0.5880528026206338 1.0000   
         H         H         1.0       0.9414726942696471  0.9404580325837316  0.5521413879353658 1.0000   
         H         H         1.0       0.9907853272961956  0.0354837451167751  0.621964856966215  1.0000   
         H         H         1.0       0.0012572913031210801         0.997697924345597  0.6584610941591553 1.0000   
         H         H         1.0       0.05842528929032729           0.9738875019826072 0.5021235190672166 1.0000   
         H         H         1.0       0.9971410750727423  0.969547758604389   0.5114638846442842 1.0000   
         H         H         1.0       0.05850666873100223           0.07341654214232451          0.570310645884131  1.0000   
         H         H         1.0       0.12146187836614074           0.07744653142014113          0.5646864148282963 1.0000   
         H         H         1.0       0.9340072292971158  0.03945358504731433           0.5886848756866245 1.0000   
         H         H         1.0       0.9409936115322399  0.0990623445122855  0.5960751669091162 1.0000   
         H         H         1.0       0.03847723980528965           0.1502928688911327 0.5233698659708401 1.0000   
         H         H         1.0       0.03287199945372587           0.0888888455342296 0.5178434449455289 1.0000   
         H         H         1.0       0.9864555102596408  0.02963852634247388           0.48057539870038285          1.0000   
         H         H         1.0       0.9339685832385984  0.013252815558030706         0.43706908443608145          1.0000   
         H         H         1.0       0.8458387635726805  0.9630265799250336  0.5190468313782065 1.0000   
         H         H         1.0       0.8987119469207377  0.9785578649535032  0.55758809254302   1.0000   
         C         C         1.0       0.26687708389231435           0.10096294910610179          0.859400871915142  1.0000   
         C         C         1.0       0.2527811127690427  0.06514302377507075           0.872754316541639  1.0000   
         C         C         1.0       0.21262802480709367           0.03559846456275006          0.8717295233415441 1.0000   
         C         C         1.0       0.18479369028924328           0.039852329882364756         0.8558875374361529 1.0000   
         C         C         1.0       0.1988508739183633  0.07422910968359275           0.840458820750243  1.0000   
         C         C         1.0       0.23841935850403018           0.10392606616923447          0.840969874559655  1.0000   
         H         H         1.0       0.2739448529080463  0.05898451775677138           0.8829568389657683 1.0000   
         H         H         1.0       0.20197689898303056           0.005341257815061118         0.8802249199184332 1.0000   
         H         H         1.0       0.17886685784438539           0.07899930604225869          0.8286265413817392 1.0000   
         H         H         1.0       0.24985280380629418           0.1312401321363866 0.8285484921303733 1.0000   
         C         C         1.0       0.1036244667099373  0.027627271872800785         0.8724097531620546 1.0000   
         C         C         1.0       0.10435075432227726           0.00766541967242218          0.8449602090490081 1.0000   
         C         C         1.0       0.07318878985980577           0.9906696448539141 0.8217945784291893 1.0000   
         C         C         1.0       0.043770228950707445          0.9983900885302528 0.8259715175960822 1.0000   
         C         C         1.0       0.043677388002177686          0.020562743508490744         0.853141434934365  1.0000   
         C         C         1.0       0.07417431229214103           0.034206635433078114         0.876475063017365  1.0000   
         C         C         1.0       0.14013211752396215           0.0008276336302832643        0.8458668966903322 1.0000   
         C         C         1.0       0.11536073544225688           0.9602567271437009 0.8670531368491262 1.0000   
         C         C         1.0       0.08676810005394503           0.9261192250380468 0.8510479835736209 1.0000   
         C         C         1.0       0.0649138218449427  0.8923323939529232  0.8701429303847659 1.0000   
         C         C         1.0       0.06533383763151654           0.8944330676082639 0.9055244435765456 1.0000   
         C         C         1.0       0.09255402808971037           0.9288015457712627 0.9219273071107867 1.0000   
         C         C         1.0       0.11796620862237131           0.9608452546177249 0.9017012686733682 1.0000   
         C         C         1.0       0.15562166729797772           0.011190027751339482         0.7821355647251822 1.0000   
         C         C         1.0       0.18042119579351845           0.017870994739106912         0.7543642124653444 1.0000   
         C         C         1.0       0.201172852533203   0.0003828187551579987        0.7534580915649713 1.0000   
         C         C         1.0       0.19004425173898584           0.9709787393200948 0.7774897534559576 1.0000   
         C         C         1.0       0.1727210212509463  0.9731601149014139  0.8080964010063868 1.0000   
         C         C         1.0       0.15390347618644865           0.9921452092063068 0.8103107957382008 1.0000   
         C         C         1.0       0.24062981227937139           0.018061413879927102         0.7264817385429349 1.0000   
         C         C         1.0       0.1715020177414406  0.9462595537435907  0.6390910937152606 1.0000   
         C         C         1.0       0.1749911584224451  0.9814702769433987  0.6433365372443824 1.0000   
         C         C         1.0       0.19506486888281308           0.0031273164584548763        0.6710171986906717 1.0000   
         C         C         1.0       0.21554302759858954           0.9934971035628632 0.6926806373020155 1.0000   
         C         C         1.0       0.21029937937140686           0.9576625689516458 0.6874348286263928 1.0000   
         C         C         1.0       0.1874254484719593  0.9335252803423489  0.660807768029546  1.0000   
         C         C         1.0       0.27445032794742064           0.012675305449059147         0.739070188315522  1.0000   
         C         C         1.0       0.28099573822002183           0.00941422021434013          0.7729312705749724 1.0000   
         C         C         1.0       0.31049624347348154           0.0022826128965089953        0.7826668052076248 1.0000   
         C         C         1.0       0.33284306204822456           0.9994133071160448 0.7572013464605847 1.0000   
         C         C         1.0       0.32541088453665856           0.002330767707560133         0.7236097213678454 1.0000   
         C         C         1.0       0.2991888769719448  0.01147830352108481           0.71556805029212   1.0000   
         C         C         1.0       0.2728264078088155  0.08610749497527015           0.6978628971120783 1.0000   
         C         C         1.0       0.2849138606235998  0.12347349278921636           0.6982320332750142 1.0000   
         C         C         1.0       0.29621190555085913           0.14420865518588408          0.7278512892332444 1.0000   
         C         C         1.0       0.2907667009015353  0.12526439113008542           0.7577431514464406 1.0000   
         C         C         1.0       0.2760107145481513  0.08600642846830611           0.7574294429343541 1.0000   
         C         C         1.0       0.26628207894530254           0.06477151834475568          0.7273226915424941 1.0000   
         H         H         1.0       0.1242995096882063  0.03485121899310517           0.8934570125641429 1.0000   
         H         H         1.0       0.07066966408978897           0.9707095513678856 0.8019749003441271 1.0000   
         H         H         1.0       0.018757528344119426          0.9854632101949914 0.8088969251604354 1.0000   
         H         H         1.0       0.0754577287596395  0.04954352616379931           0.899508127513424  1.0000   
         H         H         1.0       0.08495131473720938           0.9221389161003016 0.824335380988201  1.0000   
         H         H         1.0       0.04833228604414887           0.8666257726043243 0.8560307550904328 1.0000   
         H         H         1.0       0.08982294195772791           0.9301276191911987 0.9490882108452715 1.0000   
         H         H         1.0       0.1406821623577166  0.9885959440239234  0.9157473823183138 1.0000   
         H         H         1.0       0.14236185825228417           0.027132361520883386         0.7857818013701885 1.0000   
         H         H         1.0       0.186852548727502   0.03953331142711946           0.7363933570090395 1.0000   
         H         H         1.0       0.19628844034974188           0.949780933761466  0.775315614300611  1.0000   
         H         H         1.0       0.1656168863627687  0.9516728419113231  0.8270845436682625 1.0000   
         H         H         1.0       0.15771431456553436           0.9872574020661279 0.6268105082932062 1.0000   
         H         H         1.0       0.19702339572787872           0.02936457294946937          0.6734107491830945 1.0000   
         H         H         1.0       0.21770655633069788           0.9438269597255043 0.7075314322528341 1.0000   
         H         H         1.0       0.17934216858121546           0.9029754518367481 0.6583635178854164 1.0000   
         H         H         1.0       0.26680417602862194           0.012830362583058584         0.7939123476052306 1.0000   
         H         H         1.0       0.31499385786363243           0.9984533349100545 0.8101152610259393 1.0000   
         H         H         1.0       0.34258010880171363           0.0008227168465781975        0.7025629655314026 1.0000   
         H         H         1.0       0.2947906022692581  0.01341437908601395           0.6906495586657501 1.0000   
         H         H         1.0       0.2663531902255952  0.0722012670104728  0.6732280876930521 1.0000   
         H         H         1.0       0.28962283704718716           0.1377650726493748 0.6757653460518435 1.0000   
         H         H         1.0       0.29452208881661446           0.1377889577776612 0.7833853837988557 1.0000   
         H         H         1.0       0.2682873337084747  0.07247940976067535           0.7822846043847196 1.0000   
         C         C         1.0       0.9802013005042166  0.06899534890923165           0.995736480734022  1.0000   
         C         C         1.0       0.9595188142759042  0.03236400199112799           0.9823575142756783 1.0000   
         C         C         1.0       0.9737616951895618  0.008686405079164183         0.9886579435763801 1.0000   
         C         C         1.0       0.00780971493579111           0.021009722760349847         0.005572641098291475         1.0000   
         C         C         1.0       0.02679188637257917           0.05787532297856601          0.01953742002326697          1.0000   
         C         C         1.0       0.01438547820025706           0.08199774606936061          0.01372796976407642          1.0000   
         H         H         1.0       0.9311268602359334  0.019573157688641762         0.9669811578618334 1.0000   
         H         H         1.0       0.9570841126238728  0.9800411990118612  0.9787689511772827 1.0000   
         H         H         1.0       0.051934427535338334          0.0698629557936503 0.03577228715747616          1.0000   
         H         H         1.0       0.031446936046233   0.11020954812139605           0.026306294991046197         1.0000   
         C         C         1.0       0.09119511984105105           0.04282311777349146          0.9917192881458623 1.0000   
         C         C         1.0       0.06784732029929331           0.015515416550082817         0.015467062236895979         1.0000   
         C         C         1.0       0.09129707004068115           0.007918149335756297         0.038718216327073174         1.0000   
         C         C         1.0       0.13345962428002933           0.031219902193159843         0.03789508076796344          1.0000   
         C         C         1.0       0.15328923961465127           0.05762749172494619          0.012626012081539795         1.0000   
         C         C         1.0       0.1327806886442883  0.06349917699492802           0.9882337713006346 1.0000   
         C         C         1.0       0.01975073185344885           0.9928637091830801 0.014562898925293721         1.0000   
         C         C         1.0       0.00993666442131132           0.9570915994508662 0.9920165081402984 1.0000   
         C         C         1.0       0.012082630096675978          0.9275228388352141 0.0062304194683153735        1.0000   
         C         C         1.0       0.007429196953607623          0.8980130895658178 0.9860811486692829 1.0000   
         C         C         1.0       0.0009864246114828599         0.897441452586501  0.951701368427143  1.0000   
         C         C         1.0       0.0019162747087906602         0.9283399429715282 0.9370260568405848 1.0000   
         C         C         1.0       0.006949111365037371          0.9574769851435125 0.9569322368926698 1.0000   
         C         C         1.0       0.012288078937214232          0.9971976175061966 0.07774448120871402          1.0000   
         C         C         1.0       0.9999574311623112  0.9808899021638144  0.10898714128622133          1.0000   
         C         C         1.0       0.9658940554614962  0.9433860752006632  0.11344571576509654          1.0000   
         C         C         1.0       0.9436956802068504  0.9246942825676485  0.08407930813873299          1.0000   
         C         C         1.0       0.9564351610642234  0.9423852142101291  0.052553772920791886         1.0000   
         C         C         1.0       0.993412968132841   0.9771247571789831  0.04863809029775612          1.0000   
         C         C         1.0       0.9603138412512988  0.917424138343544   0.14460977817812298          1.0000   
         C         C         1.0       0.029052138292106476          0.8678442735963636 0.11913613565579631          1.0000   
         C         C         1.0       0.04642370716239782           0.9062072588530791 0.11763913566501881          1.0000   
         C         C         1.0       0.025818139062960665          0.9231480907812272 0.12153909316926761          1.0000   
         C         C         1.0       0.9833531551869246  0.899418616431865   0.1286368681104653 1.0000   
         C         C         1.0       0.9650992771320349  0.8599645195734767  0.12809172381356693          1.0000   
         C         C         1.0       0.987120052947407   0.8435163352858799  0.12259498490448   1.0000   
         C         C         1.0       0.9153930352465836  0.8916184131532446  0.15914579724761332          1.0000   
         C         C         1.0       0.8879497379563144  0.9014110515969188  0.15108883509458404          1.0000   
         C         C         1.0       0.8485910075867231  0.8796781805771443  0.1633432571156075 1.0000   
         C         C         1.0       0.8391093539693069  0.8516346412814565  0.187466173457195  1.0000   
         C         C         1.0       0.8674514764143763  0.8446431437111053  0.19803307836178252          1.0000   
         C         C         1.0       0.9052986841982794  0.8634006340362039  0.18346808751834318          1.0000   
         C         C         1.0       0.9979994483899018  0.9203650431004199  0.19929595805229627          1.0000   
         C         C         1.0       0.014377735967571609          0.9357075803480575 0.23105387664928134          1.0000   
         C         C         1.0       0.017463178564020243          0.9686317847014969 0.24260183248452155          1.0000   
         C         C         1.0       0.004834093277508389          0.9857420065771074 0.22123749028721232          1.0000   
         C         C         1.0       0.9834103645992738  0.9668224926848692  0.19281683236598993          1.0000   
         C         C         1.0       0.9829153359553318  0.9359976432595789  0.17944140674612882          1.0000   
         H         H         1.0       0.07678680185194849           0.04849548105040302          0.9722826413023807 1.0000   
         H         H         1.0       0.07840189261004203           0.9878789888599523 0.060101644911850105         1.0000   
         H         H         1.0       0.1509293369994136  0.026406989241249956         0.05684578057547096          1.0000   
         H         H         1.0       0.14779255436760266           0.08542123480980578          0.969904120262885  1.0000   
         H         H         1.0       0.015130106544080792          0.9266153354406323 0.03191153340059305          1.0000   
         H         H         1.0       0.009585579115567166          0.8775095643337889 0.9995774834421342 1.0000   
         H         H         1.0       0.9969806187660065  0.929072527740964   0.911648411472945  1.0000   
         H         H         1.0       0.008694929622941848          0.9824917256450493 0.9454410639167988 1.0000   
         H         H         1.0       0.039327372567242544          0.024252660866834086         0.07595765169785174          1.0000   
         H         H         1.0       0.02013205744618353           0.9978235448484444 0.12953660490527463          1.0000   
         H         H         1.0       0.917668445428756   0.8935414875431941  0.08351477108818095          1.0000   
         H         H         1.0       0.9367363853667768  0.9280743431341307  0.03023600011917238          1.0000   
         H         H         1.0       0.07803610385028399           0.9194114529964046 0.11500744295466796          1.0000   
         H         H         1.0       0.04422078254907668           0.9531886947491464 0.12463717430251803          1.0000   
         H         H         1.0       0.9347529200721635  0.8423224211257242  0.13564257835435298          1.0000   
         H         H         1.0       0.972269254065419   0.8124360616335048  0.12543402290260774          1.0000   
         H         H         1.0       0.8939481823013082  0.9233292422833478  0.13342988695158908          1.0000   
         H         H         1.0       0.8258362920849713  0.8839844648640437  0.15573704311518588          1.0000   
         H         H         1.0       0.8609980820250297  0.8231717151132236  0.21617197104993768          1.0000   
         H         H         1.0       0.9241608470861484  0.8524684230497876  0.19194204028496167          1.0000   
         H         H         1.0       0.0013800114700449281         0.898632643231946  0.1915390746983288 1.0000   
         H         H         1.0       0.0274849891885136  0.9249529771974695  0.24785923565365828          1.0000   
         H         H         1.0       0.006803789042587383          0.010629947877399015         0.23108289128620071          1.0000   
         H         H         1.0       0.9678363670062995  0.9778464914105313  0.17910441585105863          1.0000   
         C         C         1.0       0.30262472917186173           0.0724855214702762 0.21186240481304558          1.0000   
         C         C         1.0       0.2870823235419577  0.09364770334742999           0.20665034040547778          1.0000   
         C         C         1.0       0.24741006327122056           0.07494358968674342          0.1976041269087345 1.0000   
         C         C         1.0       0.2223546677126363  0.03498688372306469           0.19902450586011594          1.0000   
         C         C         1.0       0.23744902451299496           0.014442455264521925         0.20844568619813222          1.0000   
         C         C         1.0       0.27808307091650186           0.03367742402604179          0.21295215119557584          1.0000   
         H         H         1.0       0.3053972950608292  0.12530262538605458           0.20965683080786823          1.0000   
         H         H         1.0       0.23824571273978268           0.09376453459258562          0.19075712469881248          1.0000   
         H         H         1.0       0.21865129872254646           0.9841636500154333 0.21227720025447205          1.0000   
         H         H         1.0       0.2919518288853872  0.019817307054738276         0.22157144421901828          1.0000   
         C         C         1.0       0.156980811338795   0.9556070687647433  0.16608197634089786          1.0000   
         C         C         1.0       0.14669283449786583           0.9690368283470728 0.19432581744912564          1.0000   
         C         C         1.0       0.11236270494892762           0.9433863878494081 0.2114944403423804 1.0000   
         C         C         1.0       0.08752052126036547           0.9043923874182189 0.201857036807089  1.0000   
         C         C         1.0       0.09749848931303136           0.8925386555438393 0.17304288390464342          1.0000   
         C         C         1.0       0.13428753536212865           0.9177176760019257 0.1572773840665079 1.0000   
         C         C         1.0       0.17396427226887912           0.014688084276765823         0.20111725182872536          1.0000   
         C         C         1.0       0.15602148546235578           0.027678342506453957         0.17224556185394432          1.0000   
         C         C         1.0       0.11622069925223218           0.01704992156637064          0.1754046150774131 1.0000   
         C         C         1.0       0.10212497483702687           0.03440552838666422          0.15547640257001816          1.0000   
         C         C         1.0       0.12579625370975087           0.05949139590085028          0.1302696462562067 1.0000   
         C         C         1.0       0.16206765039814078           0.06483644168876877          0.12250407388473475          1.0000   
         C         C         1.0       0.1790863202554431  0.051403067268649405         0.1444092116201411 1.0000   
         C         C         1.0       0.17078171437742862           0.0073357999485577086        0.26657194419848   1.0000   
         C         C         1.0       0.17897998959010805           0.024283451864816508         0.2981096416029479 1.0000   
         C         C         1.0       0.18830227874223632           0.0618914597697946 0.30016300983174765          1.0000   
         C         C         1.0       0.17634190345998496           0.07548901606733159          0.2741332653319739 1.0000   
         C         C         1.0       0.16956118796588635           0.06023128754320717          0.24235130239036223          1.0000   
         C         C         1.0       0.16874125070669443           0.025697832404940613         0.23753259464191726          1.0000   
         C         C         1.0       0.20989270640853594           0.08558496903045332          0.33374360028014277          1.0000   
         C         C         1.0       0.11032611526456759           0.04198723421478978          0.40554123055941765          1.0000   
         C         C         1.0       0.12607520430022504           0.02065614273017191          0.3994145504210435 1.0000   
         C         C         1.0       0.15813848963558788           0.03353250574857536          0.3774048743054326 1.0000   
         C         C         1.0       0.17219115424121703           0.0662130464575621 0.3592008915551731 1.0000   
         C         C         1.0       0.1528501944717684  0.08574082604708887           0.36231971436953175          1.0000   
         C         C         1.0       0.1251400995409502  0.0750455978710296  0.38753268197226964          1.0000   
         C         C         1.0       0.2335827044393404  0.13206637780581232           0.3355275759603466 1.0000   
         C         C         1.0       0.24686820218725222           0.1580632471036849 0.30823163394892567          1.0000   
         C         C         1.0       0.26279317596642693           0.19569114217537645          0.3135967348950638 1.0000   
         C         C         1.0       0.2741250195498422  0.21184084554173427           0.34497083146741625          1.0000   
         C         C         1.0       0.26290119480142043           0.1874113304634632 0.37196608228595823          1.0000   
         C         C         1.0       0.24494829669191165           0.14852470532960985          0.3677514507793546 1.0000   
         C         C         1.0       0.26102460713110004           0.07968469434880787          0.3699136203660943 1.0000   
         C         C         1.0       0.2948531939754394  0.07963726320380803           0.3727271993995607 1.0000   
         C         C         1.0       0.3207112198811064  0.0845952406680015  0.3460558653132556 1.0000   
         C         C         1.0       0.3102517853671365  0.0918620130320158  0.3144460634961518 1.0000   
         C         C         1.0       0.27448733828309435           0.09011183033465817          0.3118187246039139 1.0000   
         C         C         1.0       0.24793099774989366           0.08210502102801032          0.33876595619029065          1.0000   
         H         H         1.0       0.18570711597475895           0.977849491828543  0.15169628096690363          1.0000   
         H         H         1.0       0.10393402203340942           0.9524993499910288 0.23403799414607063          1.0000   
         H         H         1.0       0.058936145393017544          0.8886249291222912 0.21483727496854782          1.0000   
         H         H         1.0       0.13990872006365457           0.9044139688494144 0.13755603937665975          1.0000   
         H         H         1.0       0.09575268821376327           0.9963110047499659 0.19475829910045347          1.0000   
         H         H         1.0       0.07173893557560934           0.02598627562331024          0.15809764944175128          1.0000   
         H         H         1.0       0.1798615238757818  0.08338020756070418           0.10061673359592303          1.0000   
         H         H         1.0       0.2102114721786359  0.05876512570092185           0.1381541118469384 1.0000   
         H         H         1.0       0.16539976166225628           0.9787522860201059 0.2642165145335529 1.0000   
         H         H         1.0       0.18323886877011705           0.011334933875531972         0.3208684458907494 1.0000   
         H         H         1.0       0.17407420069436638           0.09898461933732017          0.2809108641050898 1.0000   
         H         H         1.0       0.1656885551063676  0.07590546613318193           0.22362637470387198          1.0000   
         H         H         1.0       0.11040862068993604           0.9944181572019564 0.4134201493533083 1.0000   
         H         H         1.0       0.16996147011117757           0.015954357988795742         0.3762382963167673 1.0000   
         H         H         1.0       0.1591543222012925  0.11095884562884664           0.34953790885216446          1.0000   
         H         H         1.0       0.11337421159964697           0.09186062389602911          0.3928540962326671 1.0000   
         H         H         1.0       0.2375873261083173  0.14351007936235174           0.2832739329337583 1.0000   
         H         H         1.0       0.26485430436637014           0.2104978570676895 0.2907963253097013 1.0000   
         H         H         1.0       0.2684377395861144  0.19657283304249495           0.3989735905543773 1.0000   
         H         H         1.0       0.23677334233672914           0.12931086216673335          0.38868666793613665          1.0000   
         H         H         1.0       0.24569393651263582           0.07825542163880028          0.3925018667484716 1.0000   
         H         H         1.0       0.30410100973722615           0.07834390797003854          0.3981439437220211 1.0000   
         H         H         1.0       0.3330570232499298  0.10145534648535669           0.295370516117918  1.0000   
         H         H         1.0       0.26894209077298237           0.09631253671764009          0.28785954048938556          1.0000   
         C         C         1.0       0.25942545876174383           0.14046179448443152          0.9852320023124035 1.0000   
         C         C         1.0       0.2971357349704797  0.15074098515962428           0.9783990090148865 1.0000   
         C         C         1.0       0.32620835815107196           0.18904503656888252          0.9727612592053801 1.0000   
         C         C         1.0       0.3174733596384485  0.21650198165155696           0.9786955253724965 1.0000   
         C         C         1.0       0.2781730221789855  0.2054505245882298  0.9857261681167396 1.0000   
         C         C         1.0       0.2483781192215247  0.16660096056778118           0.9886034530620064 1.0000   
         H         H         1.0       0.3018567482913289  0.12658540166391638           0.9748677122136654 1.0000   
         H         H         1.0       0.35816824339899106           0.1976821022242009 0.9694161059990006 1.0000   
         H         H         1.0       0.27038463692043974           0.22442071535337232          0.992236140554224  1.0000   
         H         H         1.0       0.21807655446442306           0.15609219227047938          0.9920139562085487 1.0000   
         C         C         1.0       0.3118823292830671  0.280591599603723   0.9469458924640954 1.0000   
         C         C         1.0       0.34478165319214393           0.2908902646235527 0.9676658271948084 1.0000   
         C         C         1.0       0.371707384893677   0.33029266364931603           0.9746145282761635 1.0000   
         C         C         1.0       0.35966749206104054           0.3550839433924764 0.9704583754749415 1.0000   
         C         C         1.0       0.32419003821427034           0.3424424422174418 0.9541278243623851 1.0000   
         C         C         1.0       0.30344789332704164           0.3070491188202567 0.940120344391632  1.0000   
         C         C         1.0       0.3543208942999385  0.26227973166295016           0.9822376430070981 1.0000   
         C         C         1.0       0.3947512649956467  0.2738446353499493  0.9620215309910821 1.0000   
         C         C         1.0       0.4328249299577162  0.3006517981673572  0.9752610273234689 1.0000   
         C         C         1.0       0.4675209288248791  0.3175521372207163  0.9548024753529619 1.0000   
         C         C         1.0       0.46464996312783036           0.3088109131134831 0.9198239809627674 1.0000   
         C         C         1.0       0.4262763692163087  0.28099675549893827           0.908117534266935  1.0000   
         C         C         1.0       0.3933170078314598  0.2653606101862134  0.9292107627258989 1.0000   
         C         C         1.0       0.3375135401783612  0.2751010961637887  0.042518687324891946         1.0000   
         C         C         1.0       0.32889613361658887           0.26330278866546114          0.0755512862303207 1.0000   
         C         C         1.0       0.33732422295031195           0.2385172500441368 0.08779277205366398          1.0000   
         C         C         1.0       0.36737221604042253           0.23724685496956052          0.07054654949693662          1.0000   
         C         C         1.0       0.37793969415203904           0.2509374004987051 0.03810327299211558          1.0000   
         C         C         1.0       0.3594291223329522  0.2660926317905719  0.022533786418200696         1.0000   
         C         C         1.0       0.3127907107723514  0.20971009785711434           0.1190895501465056 1.0000   
         C         C         1.0       0.3829442864541348  0.2937645551333697  0.20002747405018168          1.0000   
         C         C         1.0       0.353941923199629   0.2939065675594409  0.18110035429137683          1.0000   
         C         C         1.0       0.3298023633404661  0.26554402298373275           0.15874953219044108          1.0000   
         C         C         1.0       0.3379503359721902  0.23829614807080296           0.14917453868340924          1.0000   
         C         C         1.0       0.368018359972062   0.23835679054057574           0.16614088012427072          1.0000   
         C         C         1.0       0.39001306764580584           0.26613100631405523          0.19121154222331496          1.0000   
         C         C         1.0       0.30661755511873634           0.16945945106110685          0.11379792918994226          1.0000   
         C         C         1.0       0.29742928821724435           0.15263106725452585          0.08164825142885412          1.0000   
         C         C         1.0       0.30211019536690986           0.12387673094739643          0.07390488641870796          1.0000   
         C         C         1.0       0.31642602625119537           0.11034106865023569          0.09683570188879019          1.0000   
         C         C         1.0       0.3195766225406194  0.12275446272586783           0.12878129601727034          1.0000   
         C         C         1.0       0.31566250015552805           0.15237568055370176          0.13821148587781965          1.0000   
         C         C         1.0       0.24813253659202253           0.17985383429549548          0.1555072821304483 1.0000   
         C         C         1.0       0.20672805168530084           0.15815458918768127          0.1589661115679973 1.0000   
         C         C         1.0       0.18301027576036466           0.15244986173071384          0.13191097812860633          1.0000   
         C         C         1.0       0.20130890282352973           0.16794751254051776          0.10070560943800214          1.0000   
         C         C         1.0       0.2417283333411085  0.19196542697112481           0.09847314762892966          1.0000   
         C         C         1.0       0.2667022808563777  0.19403224941828115           0.12388749825108336          1.0000   
         H         H         1.0       0.29481393163141295           0.25308490422029695          0.9347157386713503 1.0000   
         H         H         1.0       0.3959942161063821  0.3385428106772386  0.9925591372350301 1.0000   
         H         H         1.0       0.3765338771832889  0.3851239523886315  0.9801938894002625 1.0000   
         H         H         1.0       0.27589783137906154           0.29528059571145665          0.9247565821771979 1.0000   
         H         H         1.0       0.4354253681266722  0.31476779892020124           0.9985071369729692 1.0000   
         H         H         1.0       0.49667859428659694           0.3401015718334876 0.963598158513232  1.0000   
         H         H         1.0       0.42226886851400347           0.27507866758114546          0.8808724669367127 1.0000   
         H         H         1.0       0.3635915123091763  0.24501483346209232           0.9190764856837296 1.0000   
         H         H         1.0       0.3276141884212321  0.2923337304746874  0.03307831921222659          1.0000   
         H         H         1.0       0.3124026573104212  0.27154679923231817           0.09016349312760585          1.0000   
         H         H         1.0       0.3719742590454321  0.21499269949279068           0.07623369535801605          1.0000   
         H         H         1.0       0.3935354599865556  0.24175282047369523           0.0213609883187571 1.0000   
         H         H         1.0       0.3525240318830084  0.31993454140411753           0.1825184111954456 1.0000   
         H         H         1.0       0.3077084064017561  0.2661389368541592  0.14192062601258296          1.0000   
         H         H         1.0       0.3757083581371514  0.21806052781677462           0.1604844041490906 1.0000   
         H         H         1.0       0.4159266081189316  0.2671611088331958  0.20343590470511977          1.0000   
         H         H         1.0       0.28151256404550506           0.15925662019121611          0.0654246380015604 1.0000   
         H         H         1.0       0.30090859018041066           0.11606457630306174          0.046779005668729834         1.0000   
         H         H         1.0       0.3255719459832348  0.10618368667041472           0.14569754380853941          1.0000   
         H         H         1.0       0.31739950750422674           0.16041013825726436          0.16352086141768457          1.0000   
         H         H         1.0       0.26775035968548905           0.18577130444947387          0.17647700181035944          1.0000   
         H         H         1.0       0.1938507760624976  0.14384208684238117           0.18398947174318891          1.0000   
         H         H         1.0       0.18007876097911854           0.159995194494192  0.07862334155462136          1.0000   
         H         H         1.0       0.251232939905241   0.20197461861631905           0.07272723332720887          1.0000   
         C         C         1.0       0.24093575187280014           0.3456432809298598 0.9811437026787154 1.0000   
         C         C         1.0       0.2256210451011005  0.3676382422787707  0.9745125172367253 1.0000   
         C         C         1.0       0.1846439841964112  0.35051208450604227           0.9805199089986077 1.0000   
         C         C         1.0       0.15884260438952336           0.31217103538567537          0.9890652268503727 1.0000   
         C         C         1.0       0.1750306977511732  0.2903571198094038  0.9891890012557302 1.0000   
         C         C         1.0       0.21486991464924787           0.30712585861978375          0.9857305688213992 1.0000   
         H         H         1.0       0.2424253117159616  0.39745825923361844           0.9680215734951091 1.0000   
         H         H         1.0       0.17011847807500804           0.36544591347738997          0.9771902405487906 1.0000   
         H         H         1.0       0.15692023080968928           0.25956452621352955          0.9931678060230335 1.0000   
         H         H         1.0       0.2252095734626902  0.2874081032259667  0.986669827481533  1.0000   
         C         C         1.0       0.08443223730885646           0.2214882620005517 0.9680802093803788 1.0000   
         C         C         1.0       0.07911546427789821           0.2408716069290012 0.9931997254649251 1.0000   
         C         C         1.0       0.04188980968240421           0.22118177060228894          0.010669579586453315         1.0000   
         C         C         1.0       0.013022276547227372          0.18260561931089803          0.0053504017476317944        1.0000   
         C         C         1.0       0.018768227799074586          0.1631064952455332 0.980139332161991  1.0000   
         C         C         1.0       0.054277840685165106          0.1830171167160739 0.9613244954422843 1.0000   
         C         C         1.0       0.11191502629623143           0.2890772784550111 0.9987232430301191 1.0000   
         C         C         1.0       0.08848273423646871           0.3039124253612549 0.9811166309783088 1.0000   
         C         C         1.0       0.05582994235909511           0.30316706254232356          0.995220459819708  1.0000   
         C         C         1.0       0.03153557779067806           0.3067004302192414 0.9741395135572586 1.0000   
         C         C         1.0       0.038154925327620104          0.31220869455882055          0.939976113430084  1.0000   
         C         C         1.0       0.07200786195611548           0.3159464353353872 0.9256539046726229 1.0000   
         C         C         1.0       0.09782114086944027           0.31326047560633785          0.9465921804496888 1.0000   
         C         C         1.0       0.12016162710878739           0.27603547240432846          0.06074064412044167          1.0000   
         C         C         1.0       0.1389732528054848  0.2890699397453358  0.09057305899376433          1.0000   
         C         C         1.0       0.1523644022644216  0.32623987810451205           0.10133820795659232          1.0000   
         C         C         1.0       0.14571101864338296           0.34821219673194564          0.07955523814065746          1.0000   
         C         C         1.0       0.12929851172866097           0.33638659168802976          0.04856729305669938          1.0000   
         C         C         1.0       0.1154036736953176  0.29908204825813617           0.037849568566151515         1.0000   
         C         C         1.0       0.1779768524725087  0.34432881028116286           0.13736982036279247          1.0000   
         C         C         1.0       0.23813426005646532           0.29381964514635583          0.18084034113575492          1.0000   
         C         C         1.0       0.2352321344033694  0.2935001901284383  0.14645935670371182          1.0000   
         C         C         1.0       0.21666217162422147           0.3086166548127263 0.13029526824038126          1.0000   
         C         C         1.0       0.20222354019772049           0.32678192030894954          0.15042660200061592          1.0000   
         C         C         1.0       0.2153617450971006  0.3347091404976514  0.18321254682632715          1.0000   
         C         C         1.0       0.22887077995497584           0.3156300395046499 0.1996118010587667 1.0000   
         C         C         1.0       0.14132254821538806           0.33806096752523807          0.16062051336290634          1.0000   
         C         C         1.0       0.13134769240161243           0.36544360071811643          0.1615282454336926 1.0000   
         C         C         1.0       0.1045844071430361  0.3634524197429166  0.18542464155809624          1.0000   
         C         C         1.0       0.09092862860721422           0.33622479594751237          0.21037481878770156          1.0000   
         C         C         1.0       0.09993097127792688           0.30832517996712877          0.20752020545852262          1.0000   
         C         C         1.0       0.11971645103853436           0.3069089736450599 0.18115952303651742          1.0000   
         C         C         1.0       0.22348797373336327           0.41398227975489793          0.16238468377696796          1.0000   
         C         C         1.0       0.2532195607261177  0.4525998899856664  0.15989125693524242          1.0000   
         C         C         1.0       0.2765120085618375  0.46707465720274904           0.13124998353950648          1.0000   
         C         C         1.0       0.2695845920204031  0.44186592171933736           0.1045680984652233 1.0000   
         C         C         1.0       0.24114731224110345           0.4030283496760389 0.10657346872861062          1.0000   
         C         C         1.0       0.21488244941105827           0.3886838945135977 0.13541419947141697          1.0000   
         H         H         1.0       0.11122462069156851           0.2333255571601571 0.9524790396987658 1.0000   
         H         H         1.0       0.03543727487744539           0.23492581517137814          0.029149015700607128         1.0000   
         H         H         1.0       0.9844243100954881  0.1703263241277187  0.01913782098157335          1.0000   
         H         H         1.0       0.060164017661809586          0.17036163954168715          0.9391956304075936 1.0000   
         H         H         1.0       0.04801798958903136           0.29959950572772803          0.020839702428605777         1.0000   
         H         H         1.0       0.005889463270485118          0.3050595011423215 0.9844630323164522 1.0000   
         H         H         1.0       0.07974570601217731           0.3223510343862001 0.8985377081381717 1.0000   
         H         H         1.0       0.11977591555768222           0.3104525729468334 0.9335521826892813 1.0000   
         H         H         1.0       0.11706559090097754           0.2491470917499927 0.05473078036362988          1.0000   
         H         H         1.0       0.13933103614005965           0.2698715348317899 0.10607062012832347          1.0000   
         H         H         1.0       0.1533985780882696  0.3762519360491274  0.08830869199863378          1.0000   
         H         H         1.0       0.12994846809269048           0.35870931820289603          0.03322742119282629          1.0000   
         H         H         1.0       0.2443951354210146  0.27797384298235156           0.13096868356332536          1.0000   
         H         H         1.0       0.2090782644816968  0.30159618768441815           0.10326915709950034          1.0000   
         H         H         1.0       0.2076588328555724  0.3510735454634849  0.2003830920595356 1.0000   
         H         H         1.0       0.23277730266370145           0.31969453936329284          0.22641549180097795          1.0000   
         H         H         1.0       0.14277217732881    0.38830637483973757           0.14299389953631936          1.0000   
         H         H         1.0       0.09952434515460025           0.3862172375533947 0.18479563577728442          1.0000   
         H         H         1.0       0.0929783146629066  0.2872806873335841  0.22875774614722488          1.0000   
         H         H         1.0       0.13002609707142973           0.28747763794833014          0.184626669632759  1.0000   
         H         H         1.0       0.20534470358642315           0.40161338882801656          0.18509069820523724          1.0000   
         H         H         1.0       0.25843613525717474           0.4711294388553762 0.18235345871752717          1.0000   
         H         H         1.0       0.2865138981248498  0.452778553079992   0.08136239890653174          1.0000   
         H         H         1.0       0.23550295455343923           0.3861420271958108 0.08341591223303424          1.0000   
         C         C         1.0       0.5001809471049166  0.5659544975191638  0.28150378746268184          1.0000   
         C         C         1.0       0.4662469515570547  0.5640290885288259  0.2939976782754263 1.0000   
         C         C         1.0       0.4275537672147843  0.5336989041650506  0.2865876881598603 1.0000   
         C         C         1.0       0.4208377792863768  0.5025726035417818  0.2681114804376692 1.0000   
         C         C         1.0       0.4552895720524878  0.5081869150722091  0.2519079885765007 1.0000   
         C         C         1.0       0.4937157499723574  0.5390483283650447  0.25865248106479793          1.0000   
         H         H         1.0       0.4723907707713698  0.5887491454833281  0.3060943359277821 1.0000   
         H         H         1.0       0.40177313393371106           0.535269820012537  0.2923375249967642 1.0000   
         H         H         1.0       0.45295092309598767           0.48807420214449004          0.23286451192719235          1.0000   
         H         H         1.0       0.5185579916339424  0.5395049512290092  0.24787652162222937          1.0000   
         C         C         1.0       0.34814817750162175           0.39715868227875706          0.23962088097534473          1.0000   
         C         C         1.0       0.37527622544618855           0.4283648129167643 0.25929420497799166          1.0000   
         C         C         1.0       0.3972402697674125  0.42221923944231515           0.283609998111203  1.0000   
         C         C         1.0       0.3991278352468242  0.39034297269611795           0.2827146041608211 1.0000   
         C         C         1.0       0.37606191317864934           0.36163292057697904          0.25925604388918383          1.0000   
         C         C         1.0       0.3520921389419676  0.366103117180974   0.2373209188085    1.0000   
         C         C         1.0       0.3760945595415734  0.4657251893973521  0.26176679111722223          1.0000   
         C         C         1.0       0.36919989783018664           0.4809767902960934 0.2269845061915173 1.0000   
         C         C         1.0       0.3536202759862835  0.5036192673345785  0.22472059458892085          1.0000   
         C         C         1.0       0.3522568225029556  0.5201823084570928  0.19606015157584325          1.0000   
         C         C         1.0       0.36055575165374426           0.5086550107628174 0.16633214631469265          1.0000   
         C         C         1.0       0.38092759997568854           0.49134126938483597          0.16575783524506918          1.0000   
         C         C         1.0       0.3841465993091808  0.4767035920194499  0.19660935018888165          1.0000   
         C         C         1.0       0.3552248479976417  0.4623766068293066  0.3248665316621756 1.0000   
         C         C         1.0       0.32893449281173714           0.4429623808656834 0.350220137929199  1.0000   
         C         C         1.0       0.2871678738876807  0.4203798246132572  0.3448726475918644 1.0000   
         C         C         1.0       0.27452006662570194           0.41466256241956007          0.3120625668503227 1.0000   
         C         C         1.0       0.30216668563965626           0.434335822840088  0.2858785046232054 1.0000   
         C         C         1.0       0.343854733540364   0.45658570602610693           0.2915567281030745 1.0000   
         C         C         1.0       0.2586608258768238  0.3956528231734304  0.3770057546296293 1.0000   
         C         C         1.0       0.2665552795632468  0.2941375832444477  0.37786685356035016          1.0000   
         C         C         1.0       0.2973319065145552  0.3273818567983606  0.39336083456991205          1.0000   
         C         C         1.0       0.2957532205293636  0.35924875271150314           0.39473084735424885          1.0000   
         C         C         1.0       0.2674845272621167  0.3617040188734766  0.37679883759776256          1.0000   
         C         C         1.0       0.24161467756992305           0.33001211012263826          0.354690833774787  1.0000   
         C         C         1.0       0.24038319316079867           0.2967266934545998 0.3565472596098229 1.0000   
         C         C         1.0       0.21107823972936882           0.3776753575446138 0.3818705023462352 1.0000   
         C         C         1.0       0.18873126672672877           0.38777876537371914          0.36403944205673844          1.0000   
         C         C         1.0       0.14831356771637955           0.37027788194455047          0.3717121454295136 1.0000   
         C         C         1.0       0.12997440438942873           0.3446471227405812 0.3974018871679778 1.0000   
         C         C         1.0       0.15272622544032827           0.3369860628785484 0.41660113331461357          1.0000   
         C         C         1.0       0.19187937263464586           0.3535525887103322 0.4100112338334539 1.0000   
         C         C         1.0       0.283375752818767   0.4215085854932667  0.4395782479802228 1.0000   
         C         C         1.0       0.2885373595093999  0.44607365057796455           0.4652418043848672 1.0000   
         C         C         1.0       0.287885510661357   0.4789817973492807  0.45960703020283844          1.0000   
         C         C         1.0       0.28418501696718407           0.48801091977626543          0.4269999917489992 1.0000   
         C         C         1.0       0.2742449972840135  0.46086913395391216           0.40229019589743437          1.0000   
         C         C         1.0       0.2739565646782058  0.42671865084136895           0.4078948835582312 1.0000   
         H         H         1.0       0.331075007982215   0.4025839891559116  0.2232545046413355 1.0000   
         H         H         1.0       0.4130348191074174  0.44388445653597175           0.3006562689829481 1.0000   
         H         H         1.0       0.4145994500456169  0.38518947796205305           0.3014340712713582 1.0000   
         H         H         1.0       0.33196815385827466           0.3429815881302235 0.22098967413364237          1.0000   
         H         H         1.0       0.3455960988454443  0.5129224017538457  0.24750047228695718          1.0000   
         H         H         1.0       0.3387627654778724  0.5367177886715406  0.19595976206854396          1.0000   
         H         H         1.0       0.38970191513092844           0.4858179764047989 0.142492777400674  1.0000   
         H         H         1.0       0.40264704633230586           0.4646151642109414 0.19499657122427813          1.0000   
         H         H         1.0       0.3870451826325757  0.479158306834925   0.33182992807656647          1.0000   
         H         H         1.0       0.3407698402105131  0.4447815857952665  0.37545028104477673          1.0000   
         H         H         1.0       0.2429292527376771  0.39474524606335726           0.30719746445040125          1.0000   
         H         H         1.0       0.2882374830700943  0.42711934133566226           0.26134851197971964          1.0000   
         H         H         1.0       0.3195246290014828  0.32661546810812997           0.40820005473623877          1.0000   
         H         H         1.0       0.3168230234124065  0.38015887225123896           0.41244196308305003          1.0000   
         H         H         1.0       0.22115050360528213           0.3306416061330187 0.3378584490840009 1.0000   
         H         H         1.0       0.21867034933185409           0.27141772119472674          0.3436440697445466 1.0000   
         H         H         1.0       0.2035402298973944  0.4096360191169497  0.345444105095493  1.0000   
         H         H         1.0       0.1303627440758808  0.3771971229157677  0.35469443326047784          1.0000   
         H         H         1.0       0.1394510334590704  0.3191570473730528  0.4370854949283802 1.0000   
         H         H         1.0       0.2094668869616309  0.348730502070602   0.4275651577257922 1.0000   
         H         H         1.0       0.28801826254547047           0.4003352231528597 0.4447001930740202 1.0000   
         H         H         1.0       0.295160444802176   0.4415541697524822  0.4913518099571666 1.0000   
         H         H         1.0       0.2898807572953474  0.5151817290927625  0.42043889513264016          1.0000   
         H         H         1.0       0.27176937774829196           0.4691422592895018 0.37692662635937196          1.0000   
         C         C         1.0       0.9915535404030965  0.1486332870562368  0.17386646178669835          1.0000   
         C         C         1.0       0.0086128734928137  0.12702728451146883           0.17518923299955094          1.0000   
         C         C         1.0       0.029629498574943014          0.12856596518395857          0.2021837485681216 1.0000   
         C         C         1.0       0.03326462456073398           0.15061617613897949          0.23143668752729704          1.0000   
         C         C         1.0       0.02066928835585191           0.17464063290802412          0.2289365085756868 1.0000   
         C         C         1.0       0.0017928834270850569         0.17476963163507686          0.19977598081465822          1.0000   
         H         H         1.0       0.0016773876214681849         0.10572898062822134          0.15538004431167945          1.0000   
         H         H         1.0       0.04579371835657331           0.1126494654527539 0.2028407102354821 1.0000   
         H         H         1.0       0.02853037513539869           0.196976511898466  0.2477432105581805 1.0000   
         H         H         1.0       0.9911914961958017  0.19364682642522935           0.20200008524567864          1.0000   
         C         C         1.0       0.11937431046058555           0.16480371483305287          0.23632668170863166          1.0000   
         C         C         1.0       0.09987836379866555           0.1790354860261876 0.2545241379093743 1.0000   
         C         C         1.0       0.12320268245582944           0.21903581370699576          0.25943462764435127          1.0000   
         C         C         1.0       0.16334805368398286           0.24206816977826195          0.2535452526063115 1.0000   
         C         C         1.0       0.1835197396828956  0.22596957434189083           0.2388785697039208 1.0000   
         C         C         1.0       0.1610794042558501  0.1872147406879639  0.2279235506677563 1.0000   
         C         C         1.0       0.053800249271268585          0.15048302480263687          0.2645389301638266 1.0000   
         C         C         1.0       0.04257898304938634           0.10837949606842301          0.2764865405167939 1.0000   
         C         C         1.0       0.0724153558334586  0.10602810313650024           0.2925719948558157 1.0000   
         C         C         1.0       0.06457132681952449           0.07052537117998403          0.2987577467630336 1.0000   
         C         C         1.0       0.026190733306223235          0.03744859544154977          0.2959923724428234 1.0000   
         C         C         1.0       0.9970569802326333  0.04018370546581673           0.280610070201722  1.0000   
         C         C         1.0       0.0058538709421656066         0.075995725781973  0.2704567057520139 1.0000   
         C         C         1.0       0.999864169092035   0.14476318114418538           0.3070970863367744 1.0000   
         C         C         1.0       0.9869165817596394  0.14472306900743906           0.3391973491994506 1.0000   
         C         C         1.0       0.013273955711263774          0.1580449759844101 0.3657559012759847 1.0000   
         C         C         1.0       0.053400913891546775          0.178576885696353  0.3574122817618709 1.0000   
         C         C         1.0       0.06791664893612337           0.17786415017277832          0.32626076052207437          1.0000   
         C         C         1.0       0.04076871987142061           0.16123367324602753          0.2992640680307132 1.0000   
         C         C         1.0       0.9993948747025179  0.14161259514762592           0.4036135553656002 1.0000   
         C         C         1.0       0.04524153322567834           0.25938849758063737          0.4346943271306727 1.0000   
         C         C         1.0       0.006247503345031324          0.23512058818276427          0.42063776619557   1.0000   
         C         C         1.0       0.9908099085822891  0.19763022564299088           0.41505422655459495          1.0000   
         C         C         1.0       0.014969638682302167          0.18293800123379142          0.4217710341448789 1.0000   
         C         C         1.0       0.05309145538071973           0.20754957969516846          0.43648472734317667          1.0000   
         C         C         1.0       0.06765079699631196           0.24515924522088017          0.44531379158411305          1.0000   
         C         C         1.0       0.021204431303299097          0.11830589844295458          0.4089031655797812 1.0000   
         C         C         1.0       0.017082299732041673          0.09275527497070302          0.38342479853393063          1.0000   
         C         C         1.0       0.027950246020531096          0.06701077843351189          0.38781485105423086          1.0000   
         C         C         1.0       0.03985646244132649           0.0639699674859906 0.418903196162678  1.0000   
         C         C         1.0       0.046340782040613294          0.09076991833606307          0.44541213068498575          1.0000   
         C         C         1.0       0.035977029742750306          0.11686329005042095          0.43914767666909427          1.0000   
         C         C         1.0       0.9415886921292514  0.10571355052619924           0.4473366670309465 1.0000   
         C         C         1.0       0.9045379752194238  0.07506972936958722           0.45909987071092895          1.0000   
         C         C         1.0       0.8790485876208657  0.04695818467832891           0.4363127132308939 1.0000   
         C         C         1.0       0.8906091936949886  0.051454416627653154         0.40108375837025895          1.0000   
         C         C         1.0       0.927475413810656   0.08113429990993626           0.3909537676515833 1.0000   
         C         C         1.0       0.9536560152165567  0.11025675790445155           0.4132005628752271 1.0000   
         H         H         1.0       0.10498009509870543           0.13436408431913544          0.2304758253575015 1.0000   
         H         H         1.0       0.1092148141821081  0.23297797652923408           0.2707163159807198 1.0000   
         H         H         1.0       0.18015225328232143           0.2730668676581571 0.26348694214045076          1.0000   
         H         H         1.0       0.1756959681318102  0.17443279511744006           0.21818014626941845          1.0000   
         H         H         1.0       0.10237972632473813           0.13166936409782637          0.297133689134879  1.0000   
         H         H         1.0       0.08913448474072916           0.06901476217775193          0.30705964732998664          1.0000   
         H         H         1.0       0.9664561483309401  0.015434529014043852         0.27676547580102595          1.0000   
         H         H         1.0       0.9813294960819718  0.07409047663497592           0.2587572930202889 1.0000   
         H         H         1.0       0.9760741387300409  0.12724555125452933           0.28838010576232814          1.0000   
         H         H         1.0       0.9558526919999771  0.13733159360790292           0.34230024147218957          1.0000   
         H         H         1.0       0.0744096108841995  0.1841718753769714  0.3781832949323429 1.0000   
         H         H         1.0       0.10072936511334118           0.18584353601312859          0.32512574019101714          1.0000   
         H         H         1.0       0.9902423798027614  0.24760587224089836           0.411528547211283  1.0000   
         H         H         1.0       0.9632867241452541  0.18077976559919454           0.40041589807085515          1.0000   
         H         H         1.0       0.07354189339291263           0.198345310940308  0.43956288432815055          1.0000   
         H         H         1.0       0.09390965692610669           0.26324814565552296          0.46016354957553907          1.0000   
         H         H         1.0       0.007376447835064637          0.0926689760389603 0.35845384354593296          1.0000   
         H         H         1.0       0.01862367461889133           0.04277241592899794          0.3695117753597096 1.0000   
         H         H         1.0       0.05490264716758495           0.09019044296461542          0.4715032876090481 1.0000   
         H         H         1.0       0.04049234435873737           0.13657135406908594          0.4599955630498533 1.0000   
         H         H         1.0       0.9621050331360629  0.1256237943082946  0.465003152046674  1.0000   
         H         H         1.0       0.8971159527883821  0.07367661855886731           0.4866520561355483 1.0000   
         H         H         1.0       0.8724092620725458  0.0312563074001071  0.38129211460627394          1.0000   
         H         H         1.0       0.9358939136714263  0.08345974952624213           0.36498218574920616          1.0000   
         C         C         1.0       0.08353045599561576           0.32809780590282994          0.4084108485586851 1.0000   
         C         C         1.0       0.06248291670600846           0.302374506848691  0.4395628439658795 1.0000   
         H         H         1.0       0.0625125872724939  0.3105252456367106  0.3850295717778347 1.0000   
         H         H         1.0       0.07832040799863677           0.3527586891946025 0.4092048545079402 1.0000   
         H         H         1.0       0.03709530344941895           0.3044966545361545 0.444401856603095  1.0000   
         H         H         1.0       0.08395104275068817           0.31355662322040284          0.46213086288374333          1.0000   
         C         C         1.0       0.24670410899001016           0.2669345332796951 0.198266158537201  1.0000   
         C         C         1.0       0.2295454260407852  0.2517970979236127  0.234005372330888  1.0000   
         H         H         1.0       0.23202783407850736           0.23967079453102486          0.18151408646667078          1.0000   
         H         H         1.0       0.2788544429370585  0.2778242450603836  0.19586234543020029          1.0000   
         H         H         1.0       0.24618185028748996           0.2746097357341285 0.2536395668908581 1.0000   
         H         H         1.0       0.24132380830739653           0.2336798909495967 0.23987996505424597          1.0000   
         C         C         1.0       0.3099294121712022  0.5098382809932962  0.12942748633096984          1.0000   
         C         C         1.0       0.353140121884226   0.5209039582009194  0.13287767517457882          1.0000   
         H         H         1.0       0.30434302069441577           0.5188007881701178 0.10569740171484923          1.0000   
         H         H         1.0       0.30204220752697364           0.5267609875165566 0.1474765751238756 1.0000   
         H         H         1.0       0.3701035826808345  0.5523500374288254  0.1305507753938149 1.0000   
         H         H         1.0       0.36014115040962763           0.5101968551753303 0.10895274381206403          1.0000   
         C         C         1.0       0.4073835990324037  0.32760695587129957           0.22439181723805016          1.0000   
         C         C         1.0       0.3784564287314336  0.3255135543803044  0.25506213421485185          1.0000   
         H         H         1.0       0.4367803227292627  0.3327501984845089  0.23343849262314548          1.0000   
         H         H         1.0       0.41853547793288726           0.355078960448352  0.20792765522364967          1.0000   
         H         H         1.0       0.34486943848331636           0.3011205358040397 0.2537783889436282 1.0000   
         H         H         1.0       0.38945092200272463           0.31765717649340963          0.2772325137178724 1.0000   
         C         C         1.0       0.30693177304011043           0.3673297160344989 0.9481056305679076 1.0000   
         C         C         1.0       0.28721979528670905           0.36839267243985935          0.9821627564611765 1.0000   
         H         H         1.0       0.33079654978472506           0.39447344395428735          0.9396075255521956 1.0000   
         H         H         1.0       0.2843508113703956  0.3563135465480031  0.9278761922749765 1.0000   
         H         H         1.0       0.30025148430788096           0.39809349864706406          0.9896342287515117 1.0000   
         H         H         1.0       0.2947483245677908  0.35565375813067013           0.0031725690193540323        1.0000   
         C         C         1.0       0.08128050632580731           0.03181868243122832          0.4359685688774686 1.0000   
         C         C         1.0       0.042288149910615726          0.027879035684641007         0.4247516239335528 1.0000   
         H         H         1.0       0.07332859399891549           0.0034966057923433436        0.44878588475085246          1.0000   
         H         H         1.0       0.09683319520874832           0.05599821896329704          0.4557596210043666 1.0000   
         H         H         1.0       0.020370306124314775          0.011920682325798682         0.44635227752808637          1.0000   
         H         H         1.0       0.02748382750110353           0.006046749202168078         0.406058771057677  1.0000   
         C         C         1.0       0.11488329259258927           0.08687779724759853          0.11558234550006354          1.0000   
         C         C         1.0       0.13724398727045853           0.12810762348883453          0.133531017610089  1.0000   
         H         H         1.0       0.12090372498340714           0.09106715069478559          0.08804469586440458          1.0000   
         H         H         1.0       0.08233529729914724           0.07422290591531344          0.11750472297129959          1.0000   
         H         H         1.0       0.1268501383144884  0.12461640715294942           0.16038761266864196          1.0000   
         H         H         1.0       0.12773024181656323           0.14481387829047776          0.12235416977917427          1.0000   
         C         C         1.0       0.2871447026393429  0.2530190302388815  0.3509217426592268 1.0000   
         C         C         1.0       0.2630677281122284  0.2565028261339331  0.3808235883004895 1.0000   
         H         H         1.0       0.3200825353423965  0.2706085768172306  0.3551774572505089 1.0000   
         H         H         1.0       0.28420280334813636           0.2647748252360847 0.3258242709156544 1.0000   
         H         H         1.0       0.2723527181765002  0.252572848708848   0.40579739895664124          1.0000   
         H         H         1.0       0.2303131606358856  0.23341887893610744           0.37757939424825376          1.0000   
         C         C         1.0       0.04316896761229305           0.9902791888700835 0.2733874345894376 1.0000   
         C         C         1.0       0.023765985616604146          0.9996470085090496 0.3011265978178072 1.0000   
         H         H         1.0       0.053433520111917376          0.9740401214297282 0.2867939259286712 1.0000   
         H         H         1.0       0.07206282211106307           0.018046533825441857         0.2656935480152525 1.0000   
         H         H         1.0       0.03958090747507757           0.001127067597266107         0.3228612820531151 1.0000   
         H         H         1.0       0.9925963183556828  0.9730553777534928  0.3057723742927491 1.0000   
         C         C         1.0       0.9589731974186149  0.09132610165212697           0.9926590493662814 1.0000   
         C         C         1.0       0.9816174919353748  0.12406227644195773           0.9671888154011185 1.0000   
         H         H         1.0       0.9295315537092719  0.07557050943524701           0.9823739263430314 1.0000   
         H         H         1.0       0.955895749664393   0.10003346306376604           0.018250835737097404         1.0000   
         H         H         1.0       0.960563921498754   0.131450900071264   0.9583957605684961 1.0000   
         H         H         1.0       0.9909736460722021  0.11616703763911514           0.9415473770880775 1.0000   
         C         C         1.0       0.054677345849972206          0.8514793120558923 0.12190755485292122          1.0000   
         C         C         1.0       0.07154975947580788           0.8517671737096287 0.1577547858992398 1.0000   
         H         H         1.0       0.03570718493694701           0.820299427497106  0.11206557490459303          1.0000   
         H         H         1.0       0.07751238246358436           0.8617717483836523 0.10202720867398572          1.0000   
         H         H         1.0       0.08809800531117813           0.8377114397789216 0.16005125158531078          1.0000   
         H         H         1.0       0.04569712226454929           0.8340257397154454 0.1728479804040447 1.0000   
         C         C         1.0       0.20050969746145783           0.08234870466095034          0.016280673851605254         1.0000   
         C         C         1.0       0.22768326543346695           0.09790857817480429          0.9847674071367514 1.0000   
         H         H         1.0       0.2085189557783444  0.1054981018770971  0.034485495664117405         1.0000   
         H         H         1.0       0.2115804038012728  0.06582477078465264           0.029173554737065732         1.0000   
         H         H         1.0       0.2402469500411543  0.08098802469963573           0.981993553085677  1.0000   
         H         H         1.0       0.211117652851964   0.09196448537617509           0.9597338563217481 1.0000   
         C         C         1.0       0.030490227425566153          0.8611353758440563 0.9259611211459553 1.0000   
         C         C         1.0       0.9916663210775705  0.8621769228447463  0.9294131910076319 1.0000   
         H         H         1.0       0.02161270400008653           0.8331030688845706 0.9136534909691196 1.0000   
         H         H         1.0       0.040598007165448535          0.861258026014327  0.9519621581845671 1.0000   
         H         H         1.0       0.9675986930079727  0.8353224013624407  0.941911507104876  1.0000   
         H         H         1.0       0.9797438164585511  0.8620837885551963  0.906533626122071  1.0000   
         C         C         1.0       0.8521992994074152  0.9756276075617184  0.4485009762321049 1.0000   
         C         C         1.0       0.8415413212159044  0.007463205852801913         0.4479453750419682 1.0000   
         H         H         1.0       0.857393462116994   0.9711346207191017  0.4215573284657797 1.0000   
         H         H         1.0       0.8250983570143979  0.9465889772735621  0.45515667806060306          1.0000   
         H         H         1.0       0.8332652725861648  0.00998605751377335           0.475130561375287  1.0000   
         H         H         1.0       0.81620718412968    0.0019798594663693603        0.43166365632461284          1.0000   
         C         C         1.0       0.15252464062166243           0.9231552076245854 0.6065824487010404 1.0000   
         C         C         1.0       0.10885553982330921           0.8880577739792029 0.6071958896121471 1.0000   
         H         H         1.0       0.15519762272915208           0.9433866511438892 0.587043622022785  1.0000   
         H         H         1.0       0.17404651403419177           0.9152597883873074 0.5978485429022294 1.0000   
         H         H         1.0       0.10774817972865161           0.8696962002020254 0.6275686050773548 1.0000   
         H         H         1.0       0.10153501278879001           0.8729858031557086 0.5822456958663319 1.0000   
         C         C         1.0       0.9728789888851573  0.2692653498160597  0.9064468958383808 1.0000   
         C         C         1.0       0.007291703156473428          0.3112112308419595 0.9160346540717693 1.0000   
         H         H         1.0       0.9531133040428662  0.2710844380162043  0.8885843650091617 1.0000   
         H         H         1.0       0.9563437509010198  0.2536372956529819  0.9295950997683677 1.0000   
         H         H         1.0       0.9951318924000597  0.32574998635869973           0.9312503809886835 1.0000   
         H         H         1.0       0.02128320497501579           0.32754180930958243          0.8916044788699056 1.0000   
         C         C         1.0       0.1491513656237252  0.09222412472710939           0.717843403515448  1.0000   
         C         C         1.0       0.16346531697244804           0.0763527738703298 0.6873920875034985 1.0000   
         H         H         1.0       0.17088813560680216           0.1255357673523072 0.7206822055157686 1.0000   
         H         H         1.0       0.15414513542072172           0.08066541425277274          0.7408001194237622 1.0000   
         H         H         1.0       0.19082112239375412           0.07853345282324908          0.694135677116945  1.0000   
         H         H         1.0       0.17180748627887302           0.09809822980958405          0.6665453723138907 1.0000   
         C         C         1.0       0.0010205988409294957         0.03919322174213691          0.8908140110712434 1.0000   
         C         C         1.0       0.0037082368175538174         0.017648724650444647         0.8595679357671987 1.0000   
         H         H         1.0       0.02092940925714628           0.03876911876169786          0.910979653567033  1.0000   
         H         H         1.0       0.9697836500959633  0.020492333538495444         0.8999351294228056 1.0000   
         H         H         1.0       0.9805597075003952  0.9858807385561531  0.8635114031841117 1.0000   
         H         H         1.0       0.9930030651512793  0.02304483989496653           0.8359851706038516 1.0000   
         C         C         1.0       0.36161846529479114           0.0920810069898166 0.3531441795107989 1.0000   
         C         C         1.0       0.3927634209442302  0.13695180401385115           0.35831030801196817          1.0000   
         H         H         1.0       0.358481259105277   0.07519276983358658           0.37543568348349554          1.0000   
         H         H         1.0       0.37417351242353336           0.08248317276024573          0.33309121848781054          1.0000   
         H         H         1.0       0.39285074310493456           0.15264013346361524          0.33621401623353864          1.0000   
         H         H         1.0       0.42273825835043644           0.14211716985063624          0.3581134407536131 1.0000   
         C         C         1.0       0.3610160435655181  0.21527852414737442           0.7250044059069927 1.0000   
         C         C         1.0       0.3154740004604851  0.1872126154372253  0.7296005384604941 1.0000   
         H         H         1.0       0.37819027997727894           0.21489708370973906          0.7462935884253717 1.0000   
         H         H         1.0       0.36772978456239813           0.24553198979554905          0.7265081635956102 1.0000   
         H         H         1.0       0.29850741974801287           0.19397340433396054          0.7144572664479295 1.0000   
         H         H         1.0       0.30664217934752735           0.19504279558788087          0.7534936099653959 1.0000   
         C         C         1.0       0.15218499566651875           0.030053265591474698         0.4933391294920277 1.0000   
         C         C         1.0       0.13880089719388142           0.032249840234108484         0.5297048784305799 1.0000   
         H         H         1.0       0.14238237008217447           0.9993781251518884 0.4891261805723273 1.0000   
         H         H         1.0       0.13384172068938646           0.03283276658300571          0.4761454539183022 1.0000   
         H         H         1.0       0.16138692705020846           0.061067775038952554         0.5387802327576477 1.0000   
         H         H         1.0       0.1354269453843768  0.008958435691675204         0.5455400578494445 1.0000   
         C         C         1.0       0.4986228027838487  0.3742735030102199  0.8850193820625396 1.0000   
         C         C         1.0       0.49674911943748584           0.3374359040671968 0.8943232195788443 1.0000   
         H         H         1.0       0.5037996520156328  0.39107117835126587           0.9077264719166412 1.0000   
         H         H         1.0       0.5272673223182274  0.39458549633635165           0.8717346633288887 1.0000   
         H         H         1.0       0.5266493177930704  0.34939109708006844           0.9047280376203204 1.0000   
         H         H         1.0       0.49403884674331816           0.3199811816261252 0.8702765954939847 1.0000   
         C         C         1.0       0.5392724635011346  0.37834276331650224           0.6274581611010738 1.0000   
         C         C         1.0       0.5177000997646843  0.3767437602946313  0.6627611684340405 1.0000   
         H         H         1.0       0.5734047792133624  0.39416140738150307           0.6310104918174309 1.0000   
         H         H         1.0       0.537101448997597   0.39754659921104474           0.6105731059328685 1.0000   
         H         H         1.0       0.5355311681977518  0.40662485874598747           0.6744280801097835 1.0000   
         H         H         1.0       0.5209340781723855  0.3563394626150532  0.6794569813179034 1.0000   
         C         C         1.0       0.22869354792917385           0.3476460715491521 0.8696230846136491 1.0000   
         C         C         1.0       0.19198793604917136           0.34226451563114524          0.8504127882593023 1.0000   
         H         H         1.0       0.2156195232068489  0.32960800720719063           0.8934773716146612 1.0000   
         H         H         1.0       0.24989440176893027           0.3763549024619946 0.8813214276081413 1.0000   
         H         H         1.0       0.20241446907590727           0.3540675475380704 0.824512965992932  1.0000   
         H         H         1.0       0.18100329374804597           0.3591872278715911 0.8589765356170403 1.0000   
         C         C         1.0       0.32757340111427263           0.16994703018088184          0.8753778008796668 1.0000   
         C         C         1.0       0.3147361846278103  0.13331400402021068           0.8577833464886099 1.0000   
         H         H         1.0       0.35881085084708597           0.18535887362121808          0.8834684558448652 1.0000   
         H         H         1.0       0.3125143526478453  0.1615310843460829  0.8999791255874541 1.0000   
         H         H         1.0       0.32893982654846315           0.12066682544182551          0.8702150863455678 1.0000   
         H         H         1.0       0.32693555453805934           0.13953553839999797          0.8318512786966732 1.0000   
         C         C         1.0       0.2528844825868146  0.49589271482083563           0.5046209841394016 1.0000   
         C         C         1.0       0.293390992173624   0.5061061103947382  0.48849348025700623          1.0000   
         H         H         1.0       0.2376110513019116  0.49885968693349475           0.4827378128450434 1.0000   
         H         H         1.0       0.2597853177340239  0.5192479350432675  0.5243170590960214 1.0000   
         H         H         1.0       0.3091970474572104  0.5028345835249267  0.5100703726785946 1.0000   
         H         H         1.0       0.31374190459602236           0.538557907359745  0.48238579541125265          1.0000   
         C         C         1.0       0.951108169859138   0.18044065157858669           0.6764529013972936 1.0000   
         C         C         1.0       0.9334578634948855  0.14353152963721288           0.6532396852131535 1.0000   
         H         H         1.0       0.9346047331104953  0.16802443588945778           0.7015010059199205 1.0000   
         H         H         1.0       0.9413288367904636  0.19965773868718323           0.6674424701464615 1.0000   
         H         H         1.0       0.939848231387548   0.15037014956381564           0.6248000996863253 1.0000   
         H         H         1.0       0.8989393267867207  0.12692206598932645           0.6558326185352319 1.0000   
         C         C         1.0       0.17529665915840173           0.16182425103360384          0.6417032490596418 1.0000   
         C         C         1.0       0.20784858827335562           0.18923765497160466          0.615040052178857  1.0000   
         H         H         1.0       0.19236449044063395           0.16318118678722487          0.6653682040483929 1.0000   
         H         H         1.0       0.1566276827239807  0.13140649722915052           0.6319210386107359 1.0000   
         H         H         1.0       0.19762220891749196           0.19868366032640145          0.5946676340409165 1.0000   
         H         H         1.0       0.21796967994482347           0.1724047462841885 0.6012267266175042 1.0000   
         C         C         1.0       0.000291961596623036          0.16962030913636544          0.5642431850603916 1.0000   
         C         C         1.0       0.01554899772775078           0.195961872866035  0.5326357359804905 1.0000   
         H         H         1.0       0.020538949464241705          0.18360820173818052          0.5859418224191714 1.0000   
         H         H         1.0       0.9719186993154345  0.16443356021483532           0.5733193369432602 1.0000   
         H         H         1.0       0.998129903106375   0.20784689933175604           0.5303847422475227 1.0000   
         H         H         1.0       0.008292127712978567          0.18038857986518145          0.5071689120579129 1.0000   
         C         C         1.0       0.2983541358170688  0.31388239282327113           0.48013641094992887          1.0000   
         C         C         1.0       0.30573280283123466           0.2938425102090175 0.5090308378258424 1.0000   
         H         H         1.0       0.32561016178389457           0.34147381779704655          0.4703057642757101 1.0000   
         H         H         1.0       0.2871348920142382  0.2956041002040175  0.45661489954076784          1.0000   
         H         H         1.0       0.2808174146059879  0.28443138504279414           0.5251045277705171 1.0000   
         H         H         1.0       0.33071777996685825           0.31422385098972155          0.5236573058817714 1.0000   
         C         C         1.0       0.8848563506530029  0.9568636644512261  0.31543564999872903          1.0000   
         C         C         1.0       0.8758857281987014  0.917851417833646   0.3274282582091242 1.0000   
         H         H         1.0       0.9166675401422791  0.9776332918291593  0.30866783667690995          1.0000   
         H         H         1.0       0.8843293392661884  0.9727656632708477  0.33859337619964613          1.0000   
         H         H         1.0       0.8936086640580938  0.9105759364997843  0.3099081678544524 1.0000   
         H         H         1.0       0.8905448946541421  0.9225939782653911  0.35204211312849665          1.0000   
         C         C         1.0       0.968740401448525   0.145436904292503   0.1415683050926396 1.0000   
         C         C         1.0       0.9242537129529553  0.12998389741745253           0.15334214501952398          1.0000   
         H         H         1.0       0.9852227396486908  0.17550145923149185           0.13106429768743277          1.0000   
         H         H         1.0       0.9709278454109981  0.12648923604294593           0.12315450135666099          1.0000   
         H         H         1.0       0.9073831345741915  0.13221833635054714           0.13263395659393604          1.0000   
         H         H         1.0       0.9229675681595949  0.14796750629308275           0.17152482034878602          1.0000   
         C         C         1.0       0.6081656807571358  0.8434698360650557  0.2230638836638829 1.0000   
         C         C         1.0       0.6297367850371473  0.8240306552213177  0.21237132277884646          1.0000   
         H         H         1.0       0.6108162348532393  0.8616718227018305  0.2024097447125829 1.0000   
         H         H         1.0       0.6244707984803713  0.8659768142018255  0.24232829338706063          1.0000   
         H         H         1.0       0.6570839178375024  0.8483718167294059  0.1994404884121217 1.0000   
         H         H         1.0       0.6123080786141761  0.800887113354244   0.19457204155826585          1.0000   
         C         C         1.0       0.5573148822731995  0.6938155501764209  0.14863584146458883          1.0000   
         C         C         1.0       0.5245062840796052  0.6698826745867354  0.12337219495325003          1.0000   
         H         H         1.0       0.5680107830638429  0.6763014406997963  0.1585229776707361 1.0000   
         H         H         1.0       0.5438068118998635  0.6997248822541626  0.16958160967150107          1.0000   
         H         H         1.0       0.519638799078493   0.6408369787734737  0.1262661127319288 1.0000   
         H         H         1.0       0.531998018916798   0.6760906769147677  0.09619240179654666          1.0000   
         C         C         1.0       0.5607948754535073  0.6361039133870827  0.2684819355395295 1.0000   
         C         C         1.0       0.5435442609712101  0.6002689062234606  0.29164645205469053          1.0000   
         H         H         1.0       0.5674389441876613  0.6296040942328065  0.2433191141197547 1.0000   
         H         H         1.0       0.59150506632672    0.6584659926051721  0.27830530481231325          1.0000   
         H         H         1.0       0.5656438764257531  0.5922602821538214  0.2913745208878699 1.0000   
         H         H         1.0       0.543722092931259   0.6086613109252587  0.31971423201279614          1.0000   
         C         C         1.0       0.44766988873359886           0.8026059615456081 0.4139692980190059 1.0000   
         C         C         1.0       0.43296167736627494           0.7936498968231511 0.4504291290482978 1.0000   
         H         H         1.0       0.4474287836357694  0.8264550789393683  0.4014507272135987 1.0000   
         H         H         1.0       0.42384229562494    0.7781759515513677  0.3981963467756792 1.0000   
         H         H         1.0       0.40483854919593637           0.7661050702983853 0.45837815716080826          1.0000   
         H         H         1.0       0.4574823922342763  0.7966803507325888  0.4664553174185853 1.0000   
         C         C         1.0       0.3202469925847107  0.6725395059859245  0.3991545319574533 1.0000   
         C         C         1.0       0.3654987785091518  0.681838539254265   0.3961003181450937 1.0000   
         H         H         1.0       0.29837612106588035           0.6464807865300348 0.38609041550941153          1.0000   
         H         H         1.0       0.3108238489836124  0.6646921205628337  0.4254162199402165 1.0000   
         H         H         1.0       0.36419180417416125           0.65782686745355   0.4081997009580702 1.0000   
         H         H         1.0       0.38455450167271815           0.7065344090057187 0.41366881660057986          1.0000   
         C         C         1.0       0.6033567016817833  0.09606541883318531           0.46824788362603414          1.0000   
         C         C         1.0       0.5683356939884253  0.07541303757473572           0.4427640751308529 1.0000   
         H         H         1.0       0.5910489899558898  0.09296937502919245           0.4937495096028637 1.0000   
         H         H         1.0       0.6164568116540057  0.1268254106285598  0.46481835602993044          1.0000   
         H         H         1.0       0.5798969695018067  0.07608269596472073           0.41838173968297154          1.0000   
         H         H         1.0       0.5602951406421386  0.0970190977332912  0.4395473718931247 1.0000   
         C         C         1.0       0.6261599441143644  0.97095750923905    0.2110176262744697 1.0000   
         C         C         1.0       0.6363047652098972  0.9405595791080709  0.21466755732821743          1.0000   
         H         H         1.0       0.5936402505944208  0.9567350973314707  0.21591558878502612          1.0000   
         H         H         1.0       0.6310875255648614  0.9793042243202466  0.1831707768366995 1.0000   
         H         H         1.0       0.6196059009918808  0.9196133110010128  0.19363681036172828          1.0000   
         H         H         1.0       0.6217191044359458  0.9248192770997502  0.23832238106433362          1.0000   
         C         C         1.0       0.6936461288305703  0.9140009792168143  0.5398099479753932 1.0000   
         C         C         1.0       0.7330987392201105  0.9502001414181978  0.5262553262733731 1.0000   
         H         H         1.0       0.6741564877928703  0.9200005408532953  0.557729134605135  1.0000   
         H         H         1.0       0.7038958765713492  0.8994253931007771  0.5537758121455274 1.0000   
         H         H         1.0       0.754959749870355   0.9438706257640109  0.5143780186833307 1.0000   
         H         H         1.0       0.7518323352795305  0.9680903916166366  0.5461835526366418 1.0000   
         C         C         1.0       0.34751965593955036           0.09006117014451079          0.22140652740631672          1.0000   
         C         C         1.0       0.37482319138290293           0.09449854513306755          0.1923260159197274 1.0000   
         H         H         1.0       0.3463423912147488  0.07157252785028234           0.2426140305453208 1.0000   
         H         H         1.0       0.3617893283809136  0.11675590938576545           0.23609591454420015          1.0000   
         H         H         1.0       0.39215833493110874           0.12575403859906922          0.1837950110980537 1.0000   
         H         H         1.0       0.35768341911979656           0.07952165102643205          0.1685463962407258 1.0000   
         C         C         1.0       0.39643611882165525           0.8063089695631802 0.0958133730563437 1.0000   
         C         C         1.0       0.44286181819040343           0.8329222823288429 0.10420399511756204          1.0000   
         H         H         1.0       0.3900821346204124  0.8038231670378347  0.0674690946814891 1.0000   
         H         H         1.0       0.3761999906738937  0.8135061761781183  0.11039280502306026          1.0000   
         H         H         1.0       0.4480995452918201  0.8282609634793088  0.13083970623737387          1.0000   
         H         H         1.0       0.46072524652193253           0.8250870192024512 0.0896553493553722 1.0000   
         C         C         1.0       0.4911112587698089  0.9326554832658907  0.263982817233717  1.0000   
         C         C         1.0       0.45922136067946195           0.8999216155500255 0.24003303537378948          1.0000   
         H         H         1.0       0.5187888731248373  0.9328378680278221  0.2655472895518828 1.0000   
         H         H         1.0       0.4774177946242835  0.924713722769412   0.2888493415018901 1.0000   
         H         H         1.0       0.47080602378684305           0.8838400336174009 0.22636272164967847          1.0000   
         H         H         1.0       0.44807987402753513           0.9122391666818471 0.22263648454163537          1.0000   
         C         C         1.0       0.6533721330722007  0.20515611170995696           0.2679425330964116 1.0000   
         C         C         1.0       0.6712928866710323  0.20203741245897722           0.301313266981459  1.0000   
         H         H         1.0       0.6774774695620753  0.21519886357485452           0.24802980527927734          1.0000   
         H         H         1.0       0.6486048693628683  0.22768620092154812           0.26740172424922704          1.0000   
         H         H         1.0       0.6481669613566078  0.19427716124149175           0.32212724804411597          1.0000   
         H         H         1.0       0.6980834900538464  0.2306650838462545  0.3084327792485646 1.0000   
         C         C         1.0       0.6466663531859448  0.9528333509616569  0.07412565166722196          1.0000   
         C         C         1.0       0.6660032534438375  0.9949815706597145  0.08284478088529101          1.0000   
         H         H         1.0       0.6401539919607289  0.9467630535352464  0.046583849618782036         1.0000   
         H         H         1.0       0.6152157902234446  0.9370643250485533  0.08670291387902429          1.0000   
         H         H         1.0       0.6816516300389145  0.0022917921968235166        0.10461192305735248          1.0000   
         H         H         1.0       0.6891784125722324  0.013539971074362223         0.06373134877664044          1.0000   
         C         C         1.0       0.8931406891038847  0.13799529878692596           0.5418477794425467 1.0000   
         C         C         1.0       0.8857853596641156  0.1632132918576552  0.5194982700650059 1.0000   
         H         H         1.0       0.9007473080933901  0.11883270825635006           0.5274628725047685 1.0000   
         H         H         1.0       0.921903041970781   0.1582376296111141  0.5577334491179476 1.0000   
         H         H         1.0       0.9105733449232654  0.18061729949559524           0.5006169784851032 1.0000   
         H         H         1.0       0.8867315641030314  0.18481588757139766           0.536503525355722  1.0000   
         C         C         1.0       0.8667767092041824  0.9160767498487968  0.787419009945912  1.0000   
         C         C         1.0       0.8226776309371613  0.8966702842235696  0.7708984847992055 1.0000   
         H         H         1.0       0.8747493836079965  0.8957681284549148  0.7815533821170222 1.0000   
         H         H         1.0       0.8660294489088508  0.9159611149048849  0.8164795011879059 1.0000   
         H         H         1.0       0.8036325058956753  0.8716345160075223  0.7862422390754626 1.0000   
         H         H         1.0       0.8204534742810362  0.8869143378901343  0.7438703091497092 1.0000   
         C         C         1.0       0.7234668065556937  0.7530839155431396  0.011644346691439322         1.0000   
         C         C         1.0       0.6993016134137576  0.7169365233726251  0.03223572845913791          1.0000   
         H         H         1.0       0.7536952227751733  0.7605363486357817  0.01267452793056112          1.0000   
         H         H         1.0       0.7130365293512863  0.7489592840153467  0.9850781202856878 1.0000   
         H         H         1.0       0.710739248174299   0.6990372121596382  0.027553506741041955         1.0000   
         H         H         1.0       0.7068095039118492  0.7241591163566056  0.05957249731334224          1.0000   
         C         C         1.0       0.6316754697878927  0.8436905126155896  0.7969719278663862 1.0000   
         C         C         1.0       0.6241640705697409  0.8686486825321589  0.8216543644561735 1.0000   
         H         H         1.0       0.6219245044132974  0.8447474267204971  0.7721961905841827 1.0000   
         H         H         1.0       0.6652596696494892  0.857434870400045   0.7960518227442068 1.0000   
         H         H         1.0       0.626974309938816   0.861174399204827   0.8488446246243395 1.0000   
         H         H         1.0       0.5927064941468282  0.8607162413631574  0.8177237852889805 1.0000   
         C         C         1.0       0.37622485773362035           0.007157291713959069         0.5680334085759334 1.0000   
         C         C         1.0       0.3397786863088241  0.967617627260745   0.5550838534239195 1.0000   
         H         H         1.0       0.36217460151954867           0.014316261351845272         0.5871086987525197 1.0000   
         H         H         1.0       0.38629108348445035           0.027008476384931868         0.5473289726743443 1.0000   
         H         H         1.0       0.32473140541656853           0.949389106910797  0.5758666808190147 1.0000   
         H         H         1.0       0.31524066653296584           0.97074561872556   0.5447975561162983 1.0000   
         C         C         1.0       0.6541964654368957  0.10854023700993642           0.5628855726464191 1.0000   
         C         C         1.0       0.686803979609259   0.12909648100450255           0.5896342052429917 1.0000   
         H         H         1.0       0.6655471167282125  0.10017283028778778           0.5414438829249687 1.0000   
         H         H         1.0       0.6452729232917018  0.12792393957670734           0.5559073635143498 1.0000   
         H         H         1.0       0.6711423273438497  0.13278521676142474           0.6125697149163772 1.0000   
         H         H         1.0       0.7083322124615029  0.15950036939181578           0.5815939744093532 1.0000   
         C         C         1.0       0.40172810491261124           0.021033477700941106         0.7821457776388253 1.0000   
         C         C         1.0       0.36212750237857555           0.9886508968203827 0.7658396538425739 1.0000   
         H         H         1.0       0.3950873985208645  0.023765560959843945         0.8090164585723888 1.0000   
         H         H         1.0       0.40773623744822324           0.04821351067050772          0.7712303819160807 1.0000   
         H         H         1.0       0.34873836738671776           0.9610648846498224 0.7787882620201771 1.0000   
         H         H         1.0       0.3707588198114266  0.9818870068720409  0.7406482289133588 1.0000   
         C         C         1.0       0.4947688022831449  0.023212802327924775         0.9447353599680424 1.0000   
         C         C         1.0       0.526004416594828   0.021321173344732713         0.924382332710752  1.0000   
         H         H         1.0       0.49722124057079453           0.05056061537955325          0.9381993845955944 1.0000   
         H         H         1.0       0.4647623280977284  0.998253118389398   0.9344560480023599 1.0000   
         H         H         1.0       0.5557826826677594  0.04829808661716717           0.9235822039581953 1.0000   
         H         H         1.0       0.5149847380276887  0.01701884993836078           0.8973515419705549 1.0000   
         C         C         1.0       0.888930882564287   0.1386211694419655  0.895067875055085  1.0000   
         C         C         1.0       0.8916091129616032  0.14638959944036029           0.8569936327452179 1.0000   
         H         H         1.0       0.9103513152478664  0.16727446476660787           0.9068918122402441 1.0000   
         H         H         1.0       0.901748461102687   0.12037312830860283           0.9022360764420038 1.0000   
         H         H         1.0       0.924088686116366   0.15981917967490983           0.8500439425497802 1.0000   
         H         H         1.0       0.8867590680781171  0.1691779160908413  0.8521466836844819 1.0000   
         C         C         1.0       0.5163625289117045  0.7861786279733826  0.06873696477601432          1.0000   
         C         C         1.0       0.5514293065694397  0.830921717583207   0.07063170662019602          1.0000   
         H         H         1.0       0.4910097360249101  0.7847593375133196  0.0598646610023712 1.0000   
         H         H         1.0       0.5043708349700291  0.7731493657609168  0.09518705999775379          1.0000   
         H         H         1.0       0.5439863249206607  0.844359431472245   0.09288551168437875          1.0000   
         H         H         1.0       0.5803056461096971  0.836101261829358   0.07783913714047919          1.0000   
         C         C         1.0       0.684136354187774   0.09581922396024754           0.7630028900339567 1.0000   
         C         C         1.0       0.7029271197961313  0.12690496021308237           0.7926141749759429 1.0000   
         H         H         1.0       0.7004760360905602  0.08059485145253942           0.7617629966423015 1.0000   
         H         H         1.0       0.690776168681106   0.11054935114799631           0.7364171954344372 1.0000   
         H         H         1.0       0.6910648689373485  0.14524552670991311           0.7942912828834838 1.0000   
         H         H         1.0       0.7333763669669117  0.15042761544704217           0.7871309822295458 1.0000   
         C         C         1.0       0.20717059945601346           0.5921792070352898 0.08728452787742524          1.0000   
         C         C         1.0       0.21087899911248958           0.5581494769353269 0.1000440839978789 1.0000   
         H         H         1.0       0.17424395652646849           0.5798973363573058 0.08361140838088188          1.0000   
         H         H         1.0       0.21807706539806926           0.6163389858505254 0.10751528570888214          1.0000   
         H         H         1.0       0.18373343559254604           0.5374152433320762 0.11473514033458976          1.0000   
         H         H         1.0       0.2083806259870566  0.5413110806164213  0.07683373967910279          1.0000   
         C         C         1.0       0.4717907796866266  0.83348995834908    0.8290518953841579 1.0000   
         C         C         1.0       0.44685118796268003           0.7930937184520558 0.8139145650819948 1.0000   
         H         H         1.0       0.5010817971894717  0.8394406783735758  0.8376952092327012 1.0000   
         H         H         1.0       0.45822527766294174           0.8373813331831594 0.8515770435505047 1.0000   
         H         H         1.0       0.4644693188018882  0.7819391942606385  0.8210056942216774 1.0000   
         H         H         1.0       0.44711523641722734           0.794601649171797  0.7862809011818447 1.0000   
         C         C         1.0       0.48215584051086163           0.74074945139946   0.9512842352618758 1.0000   
         C         C         1.0       0.4955710503240484  0.7545187795368872  0.9145416427696401 1.0000   
         H         H         1.0       0.49251907959332825           0.7663390445367224 0.9677516599793257 1.0000   
         H         H         1.0       0.4970957039902738  0.7271423226822054  0.9614473145347215 1.0000   
         H         H         1.0       0.5110317752956457  0.7412618272407144  0.905769075395061  1.0000   
         H         H         1.0       0.4681593295653173  0.7425792373030402  0.898016747211793  1.0000   
         C         C         1.0       0.3835045549541061  0.5162413013599774  0.9865643352415473 1.0000   
         C         C         1.0       0.34433470927383353           0.5077171346071994 0.007299814296723328         1.0000   
         H         H         1.0       0.3750251854190137  0.5144863750588988  0.9601585564682128 1.0000   
         H         H         1.0       0.3877015135795273  0.4921351749503073  0.9907088855713877 1.0000   
         H         H         1.0       0.3198547237366324  0.4758063145505436  0.004505806091199327         1.0000   
         H         H         1.0       0.3500616453556373  0.5096981807498697  0.03370770911291299          1.0000   
         C         C         1.0       0.5506816996659833  0.6547904088493867  0.5431856898516367 1.0000   
         C         C         1.0       0.5291653323279248  0.6546717812799705  0.5093690597265077 1.0000   
         H         H         1.0       0.5817846490627594  0.6742204611628869  0.5383411778134697 1.0000   
         H         H         1.0       0.5430049439114052  0.6274558250136631  0.5500213052512201 1.0000   
         H         H         1.0       0.4961868144270776  0.6386126238235647  0.5128435005849825 1.0000   
         H         H         1.0       0.5317768352254485  0.6363957957970539  0.4914666271795949 1.0000   
         C         C         1.0       0.4327854089330207  0.812035109312418   0.5617245843038497 1.0000   
         C         C         1.0       0.4580893396213708  0.7973392136356489  0.5448012966647126 1.0000   
         H         H         1.0       0.4053300890339245  0.8000968651532974  0.5453472021139013 1.0000   
         H         H         1.0       0.42268105405972417           0.8001783303946512 0.5872246952360003 1.0000   
         H         H         1.0       0.48567105831264007           0.8212083805394855 0.5345979053977046 1.0000   
         H         H         1.0       0.44318982751534003           0.7802347678553059 0.5228521664252573 1.0000   
         C         C         1.0       0.33947101561587495           0.5659908173648952 0.8471106845878595 1.0000   
         C         C         1.0       0.36997120819635293           0.5992250511010634 0.870676005405135  1.0000   
         H         H         1.0       0.31021497020894934           0.5578807253787806 0.858488394997106  1.0000   
         H         H         1.0       0.33945892210575795           0.5395943750962542 0.8490519381315118 1.0000   
         H         H         1.0       0.36112668481058047           0.6192384488435246 0.8710173214461614 1.0000   
         H         H         1.0       0.3658981254299916  0.5857873415425606  0.8950644239950073 1.0000   
         C         C         1.0       0.19880840070000957           0.5907787991649068 0.6854659860891188 1.0000   
         C         C         1.0       0.1835775495143911  0.5861728130775253  0.7224374598502339 1.0000   
         H         H         1.0       0.206212557637025   0.617683207086533   0.6746277113702007 1.0000   
         H         H         1.0       0.17269769710185717           0.5711908068045924 0.667715769908411  1.0000   
         H         H         1.0       0.16098520322543494           0.5561867070258897 0.7315638822740476 1.0000   
         H         H         1.0       0.16720427985872444           0.5996326614966768 0.7212903197531395 1.0000   
         C         C         1.0       0.6487802593131899  0.8853124351041043  0.6545502331941909 1.0000   
         C         C         1.0       0.6387398791795915  0.8701522958915401  0.6916535625116705 1.0000   
         H         H         1.0       0.6577918593057079  0.8677346052300732  0.6391670305176791 1.0000   
         H         H         1.0       0.6202480310034446  0.8758981404448113  0.6415332210652418 1.0000   
         H         H         1.0       0.6329694378974253  0.8906651196584376  0.7027460052580363 1.0000   
         H         H         1.0       0.6628837496228916  0.8722631442910284  0.7070915413490256 1.0000   
         C         C         1.0       0.3451067434139275  0.4814182481986198  0.6108045684524084 1.0000   
         C         C         1.0       0.3132763818543817  0.43820130864239226           0.6114919469677017 1.0000   
         H         H         1.0       0.33550136484817045           0.4869379966450937 0.5868563693914998 1.0000   
         H         H         1.0       0.37727477837310797           0.49133380736684773          0.6077737400913638 1.0000   
         H         H         1.0       0.3036781520469516  0.42606148870848637           0.5860028006005832 1.0000   
         H         H         1.0       0.28472786425552093           0.432883549128506  0.6201769014501441 1.0000   
         C         C         1.0       0.7657594893089918  0.8043216815733335  0.18942050490934076          1.0000   
         C         C         1.0       0.8010394035550303  0.8329615255337326  0.20922851935512415          1.0000   
         H         H         1.0       0.7626109621476859  0.8205622174216641  0.17095933214578343          1.0000   
         H         H         1.0       0.7393033877204616  0.791595503464885   0.2072881610580866 1.0000   
         H         H         1.0       0.7932119000651419  0.8530699955705183  0.2182504461639369 1.0000   
         H         H         1.0       0.8007392322127637  0.8201338030388096  0.23329742233582307          1.0000   
         C         C         1.0       0.9263838649661629  0.6916906558789764  0.07379744773219432          1.0000   
         C         C         1.0       0.8964968936018188  0.6881012106300205  0.04761876735406778          1.0000   
         H         H         1.0       0.9451744724695071  0.7226263386221343  0.08282144001130298          1.0000   
         H         H         1.0       0.9105440370245274  0.6763292141958445  0.09756957453369353          1.0000   
         H         H         1.0       0.8881398536417685  0.6644947372265486  0.03197096823913781          1.0000   
         H         H         1.0       0.9093371551883369  0.7110673341632848  0.027362283355284234         1.0000   
         C         C         1.0       0.12394286848046987           0.6946752463749826 0.8988153799842323 1.0000   
         C         C         1.0       0.17126493474772306           0.7187364808608845 0.9018273418088543 1.0000   
         H         H         1.0       0.11257546440974034           0.6698266215590707 0.8819567190341934 1.0000   
         H         H         1.0       0.11449166950376184           0.712642148964659  0.8860233302235463 1.0000   
         H         H         1.0       0.18116089991154624           0.7477068463579325 0.8964515256932504 1.0000   
         H         H         1.0       0.1795181776347191  0.7156188811570078  0.9282998727929453 1.0000   
         C         C         1.0       0.9061051747824981  0.548462114805463   0.11361128024519832          1.0000   
         C         C         1.0       0.8698142691199386  0.5519041317731085  0.1055356640079029 1.0000   
         H         H         1.0       0.9264208456876203  0.5702932483283141  0.1327971857627355 1.0000   
         H         H         1.0       0.9280805084918539  0.5566858948052593  0.09230458255422011          1.0000   
         H         H         1.0       0.8467379187389068  0.5235707278134755  0.09193897163981386          1.0000   
         H         H         1.0       0.8786303708587488  0.5750298882240927  0.08643047347353305          1.0000   
         C         C         1.0       0.14494074855545436           0.619737231996187  0.14458249466037043          1.0000   
         C         C         1.0       0.1343924731104169  0.6496732354313626  0.13901706753197773          1.0000   
         H         H         1.0       0.16436768131025392           0.6276177947140383 0.1669820826445363 1.0000   
         H         H         1.0       0.16478434278339438           0.6218507218555507 0.12493319752508647          1.0000   
         H         H         1.0       0.16280231835875858           0.6808052828740495 0.14040555001130395          1.0000   
         H         H         1.0       0.11461382869205705           0.6465458111513497 0.1623607352447496 1.0000   
         C         C         1.0       0.06053281866650062           0.3640673464258752 0.25385336763803096          1.0000   
         C         C         1.0       0.0588058039013391  0.329322718190133   0.2376099752228223 1.0000   
         H         H         1.0       0.03816626757790975           0.3522114717485774 0.2751208977813685 1.0000   
         H         H         1.0       0.08904090347222615           0.3835685764955051 0.26595091170482   1.0000   
         H         H         1.0       0.02707048384048926           0.3121437957573124 0.2276654958504459 1.0000   
         H         H         1.0       0.060068480369289044          0.3120861026119848 0.25733285096044073          1.0000   
         C         C         1.0       0.01139640461000524           0.4099333013505745 0.8987911463659305 1.0000   
         C         C         1.0       0.0005903392539514662         0.4051796516638381 0.9390161152914557 1.0000   
         H         H         1.0       0.03330446020983646           0.4021076980119138 0.8910067688219481 1.0000   
         H         H         1.0       0.032216613287835205          0.4405451662857464 0.8921027859187771 1.0000   
         H         H         1.0       0.026779009237011042          0.41814836058387095          0.9558546665676257 1.0000   
         H         H         1.0       0.9839603788500665  0.3743987751425214  0.9449828150431712 1.0000   
         C         C         1.0       0.9461120071137852  0.34354178541801805           0.05358211569176663          1.0000   
         C         C         1.0       0.9863060215577735  0.3714934186740307  0.03445534874394429          1.0000   
         H         H         1.0       0.9435045152646275  0.3596979898522056  0.07482263922609356          1.0000   
         H         H         1.0       0.9466261525329325  0.32180318849697087           0.06761278464952825          1.0000   
         H         H         1.0       0.9815362680298683  0.38449295790988514           0.011596675991914163         1.0000   
         H         H         1.0       0.9996355392109552  0.3565200553179231  0.025004144425337715         1.0000   
         C         C         1.0       0.6606120311694372  0.1086945248373127  0.05021694688793388          1.0000   
         C         C         1.0       0.6562632151835373  0.1422621537060431  0.0427164205781112 1.0000   
         H         H         1.0       0.6335387482217     0.08743004630184062           0.06462495828654768          1.0000   
         H         H         1.0       0.6843393345929731  0.120803768580412   0.06857129398150841          1.0000   
         H         H         1.0       0.626882949428174   0.13060309855474583           0.031216241807997758         1.0000   
         H         H         1.0       0.6511142980651512  0.15154048857127886           0.06835664947254982          1.0000   
         C         C         1.0       0.7768663073268459  0.41739700918329065           0.8080014872242907 1.0000   
         C         C         1.0       0.7336399657618576  0.4034813946674581  0.82425700167471   1.0000   
         H         H         1.0       0.8007636969337799  0.44615054868406323           0.8188142013042673 1.0000   
         H         H         1.0       0.7753280214004808  0.4230533207331247  0.7806065701652343 1.0000   
         H         H         1.0       0.716297554933337   0.3721702220841662  0.8339387981086741 1.0000   
         H         H         1.0       0.7157400758920287  0.40417287400237845           0.8041364109587316 1.0000   
         C         C         1.0       0.565954092762277   0.5661998064138724  0.08808935600209589          1.0000   
         C         C         1.0       0.5941509454757046  0.6111087585861855  0.08899327879914809          1.0000   
         H         H         1.0       0.5351997655373549  0.559730706536931   0.08929332720757954          1.0000   
         H         H         1.0       0.5686661585446778  0.5526085952281324  0.11170498585832513          1.0000   
         H         H         1.0       0.5908991166262988  0.6232812445192217  0.06465739877358834          1.0000   
         H         H         1.0       0.5858864824966142  0.6249903422999723  0.10965379582840883          1.0000   
         C         C         1.0       0.7261166850289661  0.4035598150095335  0.06009807100461839          1.0000   
         C         C         1.0       0.7735036442745857  0.42378739688906275           0.06544302970643745          1.0000   
         H         H         1.0       0.7137549093287247  0.37410588097722647           0.05311675824723805          1.0000   
         H         H         1.0       0.7133492322073933  0.40161055311955796           0.08519997149480996          1.0000   
         H         H         1.0       0.7756539662087916  0.4089215629105852  0.08613272027733299          1.0000   
         H         H         1.0       0.7857234554381789  0.45373083327576363           0.07410506898143465          1.0000   
         C         C         1.0       0.5571207562583277  0.5555177149442396  0.8142878778632885 1.0000   
         C         C         1.0       0.5835965461902716  0.5418027115131826  0.8266921615400725 1.0000   
         H         H         1.0       0.5280296171072094  0.5406038346062809  0.8305323548348922 1.0000   
         H         H         1.0       0.5451336247403545  0.541729371773385   0.7871745653565234 1.0000   
         H         H         1.0       0.6173036995040135  0.5643274301400205  0.8229660629667775 1.0000   
         H         H         1.0       0.5725495948587089  0.513261459929959   0.8145745187844847 1.0000   
         C         C         1.0       0.6222183989867577  0.2576789778648021  0.017721612816034016         1.0000   
         C         C         1.0       0.661959604573318   0.29370378308751693           0.028595260159683722         1.0000   
         H         H         1.0       0.6257947943090667  0.23322983141720263           0.020988720488130497         1.0000   
         H         H         1.0       0.6191714520817702  0.25951490858624593           0.9895824584109302 1.0000   
         H         H         1.0       0.6674604526532801  0.30105855732067227           0.05508587370166018          1.0000   
         H         H         1.0       0.6616301961361727  0.31820858445790007           0.018855113049457417         1.0000   
         C         C         1.0       0.4676451988548885  0.37361801216882395           0.08923611930668396          1.0000   
         C         C         1.0       0.4476266344482852  0.36728044564478884           0.054484298418283394         1.0000   
         H         H         1.0       0.49050614789669045           0.4044841499195453 0.08938338766529608          1.0000   
         H         H         1.0       0.4464490637838276  0.3695996520684016  0.1096123881848976 1.0000   
         H         H         1.0       0.4224240508546235  0.3717165753977839  0.058255536525041896         1.0000   
         H         H         1.0       0.43036563290634566           0.33698427432128353          0.050349885905320635         1.0000   
         C         C         1.0       0.6705296644143971  0.25082650710266324           0.13535510188594094          1.0000   
         C         C         1.0       0.7101250615225658  0.2533339352034798  0.12599220812080683          1.0000   
         H         H         1.0       0.648792890052089   0.21767962339282979           0.1309547897532261 1.0000   
         H         H         1.0       0.6635021985851994  0.26418846075423874           0.11445704372060582          1.0000   
         H         H         1.0       0.714249020929555   0.2341794666094396  0.1418476142446363 1.0000   
         H         H         1.0       0.7073475279593345  0.2431845213417304  0.09926122011943411          1.0000   
         C         C         1.0       0.6444124130375899  0.43186316875291675           0.3130765378850939 1.0000   
         C         C         1.0       0.6474788480984255  0.46538513760572014           0.2932050640749403 1.0000   
         H         H         1.0       0.624717259228918   0.42610109930085577           0.33567730857355327          1.0000   
         H         H         1.0       0.673250305844986   0.44273084553451403           0.3246729544982185 1.0000   
         H         H         1.0       0.6246522269104715  0.45189663091229315           0.27289383861532085          1.0000   
         H         H         1.0       0.6343239053541523  0.47542683414959486           0.3110235889695674 1.0000   
         C         C         1.0       0.37041980935742447           0.10236513320916789          0.0684202552663764 1.0000   
         C         C         1.0       0.3281419671928789  0.08275944145749192           0.08824420176458699          1.0000   
         H         H         1.0       0.3654056321427548  0.10689174763308897           0.04095468662298174          1.0000   
         H         H         1.0       0.38033254656983656           0.08327177065299816          0.0704381847101676 1.0000   
         H         H         1.0       0.3047787496753543  0.06026549894949751           0.07067279799724369          1.0000   
         H         H         1.0       0.328958951624532   0.06807367083762772           0.11067092450549071          1.0000   
         C         C         1.0       0.9717952421149386  0.7037733669730377  0.2874292839934772 1.0000   
         C         C         1.0       0.9328057741182787  0.6863149533209387  0.3109042505074224 1.0000   
         H         H         1.0       0.9982414934451269  0.7332239161102074  0.2986834229645089 1.0000   
         H         H         1.0       0.9670446078505275  0.7098615440792779  0.26204142692963633          1.0000   
         H         H         1.0       0.9317951673020102  0.7093678151177808  0.31873994564177344          1.0000   
         H         H         1.0       0.9360503385378895  0.674513480912524   0.33551382152145803          1.0000   
         C         C         1.0       0.13242448079201635           0.7228304447837595 0.3252720476730932 1.0000   
         C         C         1.0       0.1675595981680151  0.7657245115593593  0.32206069156770123          1.0000   
         H         H         1.0       0.10625551767015    0.724422498527675   0.31909181338879444          1.0000   
         H         H         1.0       0.13580535613063485           0.703094810653942  0.306365614184716  1.0000   
         H         H         1.0       0.1628942635516547  0.7837354357758349  0.34019656669917253          1.0000   
         H         H         1.0       0.16404216355419185           0.7762638757536159 0.2974873802009772 1.0000   
         C         C         1.0       0.8134509752202782  0.2144562772635638  0.7389992100804619 1.0000   
         C         C         1.0       0.7865501325280604  0.20334954461992372           0.7064252933124127 1.0000   
         H         H         1.0       0.8066130756738177  0.18946838313937933           0.7544882220530249 1.0000   
         H         H         1.0       0.8443248738953862  0.2235045552352473  0.7308209187528839 1.0000   
         H         H         1.0       0.7895533096947297  0.18330792535818166           0.6905429298014708 1.0000   
         H         H         1.0       0.7550813228261931  0.1864167748535829  0.7126514383045189 1.0000   
         C         C         1.0       0.49716343327370766           0.11232117436524999          0.5869365835489573 1.0000   
         C         C         1.0       0.5322466034552888  0.12687318421083638           0.6114722337286539 1.0000   
         H         H         1.0       0.4739823543826721  0.08400061589774355           0.5960694339954485 1.0000   
         H         H         1.0       0.5024801598933489  0.10743689101334039           0.5605967505366134 1.0000   
         H         H         1.0       0.5398650767903546  0.10540743812139296           0.6134209976536542 1.0000   
         H         H         1.0       0.5236629847711284  0.1298690101783468  0.639484743271073  1.0000   
         C         C         1.0       0.5684009385020805  0.23299841075045477           0.38407603269213314          1.0000   
         C         C         1.0       0.5785940223960206  0.2660820025431091  0.4082826233762923 1.0000   
         H         H         1.0       0.5382479772101101  0.2064141146606523  0.38579828766774377          1.0000   
         H         H         1.0       0.5900903841505223  0.22451152336074628           0.3879154482016896 1.0000   
         H         H         1.0       0.5753947151077873  0.25717113109226963           0.43509106968046524          1.0000   
         H         H         1.0       0.553771961186279   0.26926962591076925           0.4094143514600424 1.0000   
         C         C         1.0       0.8388684379392204  0.4687290070577417  0.27152443061766646          1.0000   
         C         C         1.0       0.800945232793367   0.4685877381742079  0.2709011913621513 1.0000   
         H         H         1.0       0.8544275384635348  0.4781445407529042  0.24642833007974782          1.0000   
         H         H         1.0       0.8310949044801723  0.4389440017539253  0.27505347921303214          1.0000   
         H         H         1.0       0.777693377107693   0.44542797448728577           0.25440900272784717          1.0000   
         H         H         1.0       0.8046833701809954  0.49502322673515486           0.2627436420477449 1.0000   
         C         C         1.0       0.5796307680570618  0.37396956233648265           0.5254807691817182 1.0000   
         C         C         1.0       0.6051474587820889  0.3628691236981778  0.5034061866339516 1.0000   
         H         H         1.0       0.5819671446953454  0.37033153683697617           0.5537500927765118 1.0000   
         H         H         1.0       0.547265525886925   0.35647686728651423           0.5198490279794603 1.0000   
         H         H         1.0       0.6306080808909941  0.389517613804181   0.4935207441659903 1.0000   
         H         H         1.0       0.5870941608741771  0.3498531966464473  0.48050247726177764          1.0000   
         C         C         1.0       0.6609664612447138  0.6273627545807469  0.39019878018043463          1.0000   
         C         C         1.0       0.6978995146333218  0.6598692877771215  0.367104307484422  1.0000   
         H         H         1.0       0.6527227524454808  0.64022953374641    0.40967000217132116          1.0000   
         H         H         1.0       0.6308659063297731  0.6092447359796016  0.37472371802789317          1.0000   
         H         H         1.0       0.6985726631213368  0.6449703127586786  0.3446295681766926 1.0000   
         H         H         1.0       0.7276686084204399  0.6691756810053564  0.37861220940323354          1.0000   
         C         C         1.0       0.9342156367881151  0.8361099875465908  0.7794757535798461 1.0000   
         C         C         1.0       0.9118295584022302  0.8552367475728471  0.7659370389550002 1.0000   
         H         H         1.0       0.9193369107378925  0.8176179836308374  0.8023338936218377 1.0000   
         H         H         1.0       0.9630152453080796  0.8599477717993502  0.7874254620768207 1.0000   
         H         H         1.0       0.879662615266081   0.8346015334980259  0.7654339162837384 1.0000   
         H         H         1.0       0.9141986672928822  0.8752533113768903  0.7858176190507451 1.0000   
         C         C         1.0       0.8939726794278525  0.6676706634078953  0.9189826316214166 1.0000   
         C         C         1.0       0.8786201733795105  0.6402846705622697  0.9504428338428352 1.0000   
         H         H         1.0       0.9193181356906743  0.6960613700558382  0.9295422270540419 1.0000   
         H         H         1.0       0.8708374193664377  0.6732979163313225  0.9104400471212084 1.0000   
         H         H         1.0       0.9051580464802058  0.6381642870270549  0.9560555159812563 1.0000   
         H         H         1.0       0.8785795827815028  0.6530720469006636  0.973658816048824  1.0000   
         C         C         1.0       0.03132119895674923           0.70867432200274   0.5596724457198043 1.0000   
         C         C         1.0       0.061143534684721335          0.7481866482609398 0.5765429420998126 1.0000   
         H         H         1.0       0.010518197655965622          0.7118789651661106 0.5436465196699788 1.0000   
         H         H         1.0       0.013890512180447123          0.687860185731921  0.5801564727795303 1.0000   
         H         H         1.0       0.09134011403608056           0.7537564610375036 0.5804976282507935 1.0000   
         H         H         1.0       0.06988441561888337           0.7697788778054424 0.5546619043337344 1.0000   
         C         C         1.0       0.8131967606465433  0.6332529117794374  0.5934430521105696 1.0000   
         C         C         1.0       0.8090903585439643  0.6509283584271204  0.5591534934890569 1.0000   
         H         H         1.0       0.8178833981343046  0.6097675566168252  0.5865982705729804 1.0000   
         H         H         1.0       0.7826772049591896  0.6161940497763364  0.6062993060747194 1.0000   
         H         H         1.0       0.807907000369085   0.6763531460981482  0.561405523865422  1.0000   
         H         H         1.0       0.8392699991985453  0.6650205900284092  0.5435149152764637 1.0000   
         C         C         1.0       0.8750699806015956  0.4702036695444503  0.7114891980621887 1.0000   
         C         C         1.0       0.8485797878873997  0.4860599740458241  0.7189476332117742 1.0000   
         H         H         1.0       0.8878088174023928  0.46695039419499706           0.7346577058895947 1.0000   
         H         H         1.0       0.9005258689120635  0.4937699463313837  0.6978901895062738 1.0000   
         H         H         1.0       0.8211658202574763  0.46280444071697785           0.7327536722821464 1.0000   
         H         H         1.0       0.8419394513006154  0.49721301566237386           0.6950198620158973 1.0000   
         C         C         1.0       0.9205868752520033  0.5005322788862927  0.8270849184078448 1.0000   
         C         C         1.0       0.9443401059901204  0.48184767520274235           0.8175625976882177 1.0000   
         H         H         1.0       0.8925793601726463  0.48540780868391326           0.8114343015695449 1.0000   
         H         H         1.0       0.9351400595780835  0.5314158353675681  0.8205767520539476 1.0000   
         H         H         1.0       0.9276116916660981  0.4540798229462348  0.8286442689102843 1.0000   
         H         H         1.0       0.9754878144036029  0.4992312909885254  0.8279234061474814 1.0000   
         C         C         1.0       0.14553294525030758           0.5609493514816778 0.557592596563602  1.0000   
         C         C         1.0       0.14064362902013583           0.5571884610056979 0.5187804366028841 1.0000   
         H         H         1.0       0.12591378698048494           0.5686958134252695 0.5713680313607649 1.0000   
         H         H         1.0       0.17770373648340532           0.5850090422717553 0.5614807602532838 1.0000   
         H         H         1.0       0.11903457782853577           0.5259129669431835 0.5154334020723089 1.0000   
         H         H         1.0       0.16986554389808428           0.5667507669891461 0.5057966136040739 1.0000   
         C         C         1.0       0.9769428901068149  0.48017102159818525           0.5527239437918701 1.0000   
         C         C         1.0       0.9655226483097441  0.43888826668515674           0.5449534371907971 1.0000   
         H         H         1.0       0.0003717123313613513         0.49834004210471033          0.5330285931430027 1.0000   
         H         H         1.0       0.9519227520215856  0.48427892831445984           0.5476613790793624 1.0000   
         H         H         1.0       0.990288680312394   0.436888613872225   0.5532222600793053 1.0000   
         H         H         1.0       0.9606607220186589  0.43128265536546784           0.5169892118056083 1.0000   
         C         C         1.0       0.1345290459261903  0.6535187519019233  0.7677529112242238 1.0000   
         C         C         1.0       0.1102032013024632  0.6512673943774149  0.8004904334217963 1.0000   
         H         H         1.0       0.14334262830635502           0.6798283069379367 0.7507087550848327 1.0000   
         H         H         1.0       0.16434515953065798           0.6567716184395803 0.7748159114125066 1.0000   
         H         H         1.0       0.12550612146998974           0.679726077045218  0.813534652863385  1.0000   
         H         H         1.0       0.10915000468499847           0.6324670282968056 0.8206016240334292 1.0000   
         C         C         1.0       0.23778622301318575           0.42461972178717844          0.7085096847798364 1.0000   
         C         C         1.0       0.2293039814490364  0.4028153477064717  0.7427139715074924 1.0000   
         H         H         1.0       0.24714944262741123           0.41281332755494443          0.6880227402910282 1.0000   
         H         H         1.0       0.26596648729358985           0.4538638673773327 0.7112594829651406 1.0000   
         H         H         1.0       0.2596508096907194  0.4093103009344509  0.7525027007490845 1.0000   
         H         H         1.0       0.21909090872475437           0.41561410490184403          0.7631223064831314 1.0000   
         C         C         1.0       0.7825862745904468  0.31091421717192624           0.3237368138617093 1.0000   
         C         C         1.0       0.765892539214133   0.32091446777237526           0.2937956622835376 1.0000   
         H         H         1.0       0.7802844205961913  0.28346478551370413           0.3198896235358787 1.0000   
         H         H         1.0       0.7618136256236907  0.3034101867693966  0.34419636019658545          1.0000   
         H         H         1.0       0.7387607783276335  0.29816244333542236           0.2819557416975257 1.0000   
         H         H         1.0       0.7562703438203427  0.3386594133729814  0.30603956660559795          1.0000   
         C         C         1.0       0.9153763112154935  0.5218697210793248  0.4764767567998745 1.0000   
         C         C         1.0       0.8727707487452672  0.48998934800988503           0.49317065498198576          1.0000   
         H         H         1.0       0.9398986895311701  0.5347200528058804  0.4982466255132604 1.0000   
         H         H         1.0       0.9202800978525659  0.5485771350997345  0.4650944049730421 1.0000   
         H         H         1.0       0.8660292351035889  0.5017778118993046  0.51526566010162   1.0000   
         H         H         1.0       0.8766559900420411  0.46822932410076795           0.5046484554594908 1.0000   
         C         C         1.0       0.9474338984546617  0.2567078057570612  0.5699108561213432 1.0000   
         C         C         1.0       0.9590320280192935  0.2847976451521156  0.6008558354077893 1.0000   
         H         H         1.0       0.9212709539148832  0.2272997670117925  0.5734312749466564 1.0000   
         H         H         1.0       0.9724472495909197  0.25194422446114206           0.5673798869833887 1.0000   
         H         H         1.0       0.9425626628954239  0.2991562377146578  0.6051071920752047 1.0000   
         H         H         1.0       0.9429865253041874  0.26512956264865906           0.6230448327405804 1.0000   
         C         C         1.0       0.7173487448311672  0.24447136573641065           0.4045945725794245 1.0000   
         C         C         1.0       0.7266727331632953  0.21401328161432667           0.40941974730969816          1.0000   
         H         H         1.0       0.6941893041322706  0.2338744961043048  0.3849584572882131 1.0000   
         H         H         1.0       0.7395546441176485  0.27329293968349583           0.39383191303057963          1.0000   
         H         H         1.0       0.7152510862482033  0.1934968153350882  0.3890129920903426 1.0000   
         H         H         1.0       0.7090003056284299  0.19763351888075792           0.4324804481880554 1.0000   
         C         C         1.0       0.08657767647516401           0.5163219258049339 0.30262288656951664          1.0000   
         C         C         1.0       0.08781705405777207           0.5356715939397061 0.26933453911005006          1.0000   
         H         H         1.0       0.11535578051510065           0.5384076693419105 0.31583210297752207          1.0000   
         H         H         1.0       0.0935479793107119  0.49375572287731084           0.29310128678575303          1.0000   
         H         H         1.0       0.06593285213757394           0.510643313700446  0.25330198745149013          1.0000   
         H         H         1.0       0.11908671110061575           0.5507636624757981 0.2562502800677024 1.0000   
         C         C         1.0       0.91562082094194    0.1761866656387636  0.3371667792506386 1.0000   
         C         C         1.0       0.9048556322318578  0.174421545508484   0.29879435140383837          1.0000   
         H         H         1.0       0.9470161623637232  0.18503467935125278           0.3386811655604641 1.0000   
         H         H         1.0       0.8984732193075459  0.14522126504084662           0.3431078695367001 1.0000   
         H         H         1.0       0.9133886597955352  0.1551462558825163  0.2870883786377167 1.0000   
         H         H         1.0       0.9263106342246041  0.20444773013945072           0.2869883156477778 1.0000

