data_0
_chemical_formula_structural 
                                        C6H4C38H24C6H4C38H24C6H4C38H24C6H4C38H24C6H4C38H24C6H4C38H24C6H4C38H24C6H4C38H24C6H4C38H24C6H4C38H24C6H4C38H24C6H4C38H24C6H4C38H24C6H4C38H24C6H4C38H24C6H4C38H24C6H4C38H24C6H4C38H24C6H4C38H24C6H4C38H24C6H4C38H24C6H4C38H24C6H4C38H24C6H4C38H24C6H4C38H24C6H4C38H24C6H4C38H24C6H4C38H24C6H4C38H24C6H4C38H24C6H4C38H24C6H4C38H24C6H4C38H24C6H4C38H24C6H4C38H24C6H4C38H24C2H4C2H4C2H4C2H4C2H4C2H4C2H4C2H4C2H4C2H4C2H4C2H4C2H4C2H4C2H4C2H4C2H4C2H4C2H4C2H4C2H4C2H4C2H4C2H4C2H4C2H4C2H4C2H4C2H4C2H4C2H4C2H4C2H4C2H4C2H4C2H4C2H4C2H4C2H4C2H4C2H4C2H4C2H4C2H4C2H4C2H4C2H4C2H4C2H4C2H4C2H4C2H4C2H4C2H4C2H4C2H4C2H4C2H4C2H4C2H4C2H4C2H4C2H4C2H4C2H4C2H4C2H4C2H4C2H4C2H4C2H4C2H4C2H4C2H4C2H4C2H4C2H4C2H4C2H4C2H4C2H4C2H4C2H4C2H4C2H4C2H4C2H4C2H4C2H4C2H4C2H4C2H4C2H4C2H4C2H4C2H4C2H4C2H4C2H4C2H4C2H4C2H4C2H4C2H4C2H4C2H4C2H4C2H4
_chemical_formula_sum                   'C1800 H1440'
_cell_length_a                          44.42590424440539
_cell_length_b                          45.244336529284375
_cell_length_c                          43.96366636728019
_cell_angle_alpha                       90.53830833587261
_cell_angle_beta                        89.23422089746948
_cell_angle_gamma                       120.9718018070172
_space_group_name_H-M_alt               'P 1'
_space_group_IT_number                  1
loop_
  _space_group_symop_operation_xyz
         'x, y, z' 
loop_
  _atom_site_type_symbol
  _atom_site_label
  _atom_site_symmetry_multiplicity
  _atom_site_fract_x
  _atom_site_fract_y
  _atom_site_fract_z
  _atom_site_occupancy
         C         C         1.0       0.7295962760799435  0.3165875827449924  0.2704486415114765 1.0000   
         C         C         1.0       0.7191675964828287  0.2827837414905385  0.2694711111180348 1.0000   
         C         C         1.0       0.7445339924360337  0.2750775607366457  0.27196532391365746          1.0000   
         C         C         1.0       0.7811371784159626  0.30100715666279093           0.2709892701416363 1.0000   
         C         C         1.0       0.7884241847313791  0.3349195443060509  0.27172226927873055          1.0000   
         C         C         1.0       0.7630847974518863  0.3425834811288974  0.2710592785910652 1.0000   
         H         H         1.0       0.6907197822037893  0.26288714300776633           0.2717679082642624 1.0000   
         H         H         1.0       0.7373423102764823  0.2490033823812224  0.2782747281181039 1.0000   
         H         H         1.0       0.8140472718112767  0.35550482926043997           0.27721930227276964          1.0000   
         H         H         1.0       0.7709016041280777  0.369567533303738   0.2710660185223913 1.0000   
         C         C         1.0       0.8576757190311005  0.3338180109231562  0.24979072914525574          1.0000   
         C         C         1.0       0.8463915228435286  0.3207546559145831  0.2786221253166867 1.0000   
         C         C         1.0       0.8715783355149866  0.33501058955442514           0.3018750614659651 1.0000   
         C         C         1.0       0.9063707672689082  0.3615856930559155  0.29594587285558327          1.0000   
         C         C         1.0       0.9161280379275273  0.3722356689724063  0.2653205543117275 1.0000   
         C         C         1.0       0.8912419018104895  0.3577913226520676  0.2420634342732015 1.0000   
         C         C         1.0       0.8084131017490122  0.2894511359708723  0.28140663772822433          1.0000   
         C         C         1.0       0.8053006988985785  0.25933484177015736           0.25906405420672907          1.0000   
         C         C         1.0       0.8317658707891065  0.252156348669718   0.25968123029162743          1.0000   
         C         C         1.0       0.8321821561161291  0.2289036604200847  0.23988561481564052          1.0000   
         C         C         1.0       0.8070798384602149  0.21306483670519324           0.21837921794203236          1.0000   
         C         C         1.0       0.780211977275256   0.21868682702681755           0.21767279940696446          1.0000   
         C         C         1.0       0.78066685225949    0.24366056667268898           0.23588697302315426          1.0000   
         C         C         1.0       0.7843039846394193  0.2902404498655525  0.3364662487188662 1.0000   
         C         C         1.0       0.7575831405742489  0.2699718263714388  0.35701127207836963          1.0000   
         C         C         1.0       0.7450206537049833  0.23416385711732407           0.35807028848011085          1.0000   
         C         C         1.0       0.7665268727097315  0.2237064841273675  0.34710948179494167          1.0000   
         C         C         1.0       0.7906841149281598  0.2426327821220056  0.32389101758100464          1.0000   
         C         C         1.0       0.7960527033122102  0.27515639965687877           0.31599688062908365          1.0000   
         C         C         1.0       0.7068213820007637  0.20614062288774232           0.37087895144791627          1.0000   
         C         C         1.0       0.7432449659346063  0.22319779850157975           0.4619917135004015 1.0000   
         C         C         1.0       0.732625187547751   0.24368161493320226           0.45016738352290725          1.0000   
         C         C         1.0       0.717449080279442   0.23596784089205883           0.4224615398697605 1.0000   
         C         C         1.0       0.7149227843421843  0.20786128749806695           0.40655284548457216          1.0000   
         C         C         1.0       0.7252936717699239  0.1876841502639818  0.41983654262694187          1.0000   
         C         C         1.0       0.7390213821980162  0.19501553718459358           0.44858090479061463          1.0000   
         C         C         1.0       0.6898880384965419  0.16948435977955448           0.35537448183961623          1.0000   
         C         C         1.0       0.693609770091257   0.1659156589383346  0.3246359412298637 1.0000   
         C         C         1.0       0.6725574303706753  0.1344829094406914  0.30980390272164654          1.0000   
         C         C         1.0       0.6504380289097282  0.1057941592419826  0.3261411083298501 1.0000   
         C         C         1.0       0.646602263449031   0.1091370085155071  0.35696148809771977          1.0000   
         C         C         1.0       0.664605981172524   0.14011312690464386           0.3705747376827541 1.0000   
         C         C         1.0       0.647471312206773   0.2007906256479238  0.381376369618799  1.0000   
         C         C         1.0       0.6161404938070507  0.1930639218757307  0.37077919685100297          1.0000   
         C         C         1.0       0.6131341465023252  0.20186913863367312           0.340873110088199  1.0000   
         C         C         1.0       0.6421494877349806  0.22088429792383804           0.3243811648684953 1.0000   
         C         C         1.0       0.675072247886096   0.22812079902126658           0.3352171094404092 1.0000   
         C         C         1.0       0.6769318016557903  0.21498109773316224           0.36304217205595757          1.0000   
         H         H         1.0       0.840471257005509   0.32187471882453983           0.23034624142374435          1.0000   
         H         H         1.0       0.8671544672578254  0.3252829357692585  0.32542290404117563          1.0000   
         H         H         1.0       0.9249416798139332  0.3712590353456911  0.31512448463417675          1.0000   
         H         H         1.0       0.8971353116160997  0.36584735463723345           0.21937428845874526          1.0000   
         H         H         1.0       0.8530636441205078  0.26505033661032523           0.2763638464229764 1.0000   
         H         H         1.0       0.8539454143824337  0.22472355229289323           0.24076959538482798          1.0000   
         H         H         1.0       0.7579744876527923  0.2057232385807309  0.20350879761354815          1.0000   
         H         H         1.0       0.7606358542374366  0.24976737807703422           0.22931827890243944          1.0000   
         H         H         1.0       0.7903251519854065  0.31669738043551204           0.3369649009740967 1.0000   
         H         H         1.0       0.7421104568664867  0.27947745808343316           0.36842726790042946          1.0000   
         H         H         1.0       0.7626425874355213  0.19844304264302617           0.3472346152454124 1.0000   
         H         H         1.0       0.8016672695232486  0.23078730838365163           0.3107552061444056 1.0000   
         H         H         1.0       0.7359881331956418  0.26590719015846276           0.46005268049905457          1.0000   
         H         H         1.0       0.7094078644605526  0.2524893929975258  0.4127822765368044 1.0000   
         H         H         1.0       0.7198624604992379  0.1630985128710118  0.4107077567228305 1.0000   
         H         H         1.0       0.7471807639729999  0.17918740585242493           0.45922734557720357          1.0000   
         H         H         1.0       0.7113483867783597  0.18875326722526803           0.3100347259156191 1.0000   
         H         H         1.0       0.6754781810091554  0.13553548612937089           0.2849303339141043 1.0000   
         H         H         1.0       0.6254023237899862  0.08770076640284336           0.36908945488222916          1.0000   
         H         H         1.0       0.6539455504229079  0.14119394071923752           0.39189291545494087          1.0000   
         H         H         1.0       0.6489437790001749  0.19467559721065905           0.40541798335935764          1.0000   
         H         H         1.0       0.5915417583855077  0.18040708169993408           0.3851675851242342 1.0000   
         H         H         1.0       0.643270631036643   0.2287254837903496  0.30222548005967664          1.0000   
         H         H         1.0       0.698874299889654   0.2409440419587891  0.32111394492900386          1.0000   
         C         C         1.0       0.9764703844760951  0.31633027178411116           0.6069171104406235 1.0000   
         C         C         1.0       0.9939104338550876  0.34882762533096234           0.5942099975427195 1.0000   
         C         C         1.0       0.9741025931217016  0.36180801691039255           0.5838575004125213 1.0000   
         C         C         1.0       0.9377125549391765  0.34193536048555573           0.5826984184101279 1.0000   
         C         C         1.0       0.9223432196366291  0.3133610789338014  0.6014574543859275 1.0000   
         C         C         1.0       0.9417024276221745  0.29965079915027015           0.611831890293938  1.0000   
         H         H         1.0       0.02236028729660333           0.364444034943353  0.5892172159339885 1.0000   
         H         H         1.0       0.9897786069581744  0.3865599668210621  0.5731550950972738 1.0000   
         H         H         1.0       0.8944594901824853  0.2978686802925541  0.6044218917393214 1.0000   
         H         H         1.0       0.9298897888765636  0.27750319921729943           0.6248624028288301 1.0000   
         C         C         1.0       0.8743056018399599  0.28796321693552784           0.5450456725560042 1.0000   
         C         C         1.0       0.8846577589715677  0.32308628867986244           0.5447008367070455 1.0000   
         C         C         1.0       0.8668202401827072  0.3315396618001462  0.5236506881906869 1.0000   
         C         C         1.0       0.8434652911127116  0.30952663269457703           0.5041236464293728 1.0000   
         C         C         1.0       0.8324823329878803  0.27480580104009555           0.5057888643748095 1.0000   
         C         C         1.0       0.8487083440633597  0.26488258740714354           0.5253196583212439 1.0000   
         C         C         1.0       0.9147637684193685  0.3533906572911092  0.5641366190844238 1.0000   
         C         C         1.0       0.9400526886389798  0.38059480356625963           0.538682171361777  1.0000   
         C         C         1.0       0.940900631981992   0.411103781834785   0.5355842671385184 1.0000   
         C         C         1.0       0.9570392451217656  0.43339506208843354           0.5121501014190742 1.0000   
         C         C         1.0       0.9720321298237481  0.42496283456739864           0.48984719849691116          1.0000   
         C         C         1.0       0.9743027828177335  0.3951613188959181  0.49259217897413543          1.0000   
         C         C         1.0       0.9571413839563718  0.3730104340507177  0.5167368955809603 1.0000   
         C         C         1.0       0.8613838152207036  0.34966945194527294           0.5955488041945314 1.0000   
         C         C         1.0       0.8475215420401491  0.36504470341312606           0.6142488777327494 1.0000   
         C         C         1.0       0.8693208077518035  0.3967582674321348  0.6270214736935582 1.0000   
         C         C         1.0       0.9040125502838094  0.4077720374301204  0.6252807507640203 1.0000   
         C         C         1.0       0.9190306399122413  0.3937419667388987  0.6080364947966745 1.0000   
         C         C         1.0       0.8982514860652471  0.3653572087385475  0.5910986034695733 1.0000   
         C         C         1.0       0.8558596358728829  0.42114053266981244           0.6398238284106863 1.0000   
         C         C         1.0       0.8583834716377174  0.44959077952518417           0.5449586069575916 1.0000   
         C         C         1.0       0.8259265067206071  0.4317148089616614  0.5596280738200381 1.0000   
         C         C         1.0       0.826088148631502   0.42778301864011514           0.5903712732511023 1.0000   
         C         C         1.0       0.8572107618003274  0.4386772995636939  0.607168785178788  1.0000   
         C         C         1.0       0.887109791165373   0.46161900394916755           0.5923392389671167 1.0000   
         C         C         1.0       0.8888105479537467  0.4658410341337509  0.5615257121426017 1.0000   
         C         C         1.0       0.8779957181585248  0.44515241795414084           0.6664620456069738 1.0000   
         C         C         1.0       0.8863436960804729  0.4305490493452666  0.6909071081355023 1.0000   
         C         C         1.0       0.9058448008730845  0.4507179204348904  0.7133548689596861 1.0000   
         C         C         1.0       0.9190658591119643  0.484442325002818   0.7144628935325906 1.0000   
         C         C         1.0       0.9147524366376208  0.4999384691889849  0.6883969127748449 1.0000   
         C         C         1.0       0.8927550557761194  0.48014107855125154           0.665104900264121  1.0000   
         C         C         1.0       0.8039066480943193  0.424722282871938   0.6595707375216721 1.0000   
         C         C         1.0       0.7724920094323504  0.4130395409882492  0.6728984973739248 1.0000   
         C         C         1.0       0.7521509888851444  0.37935779496854377           0.6801411599583947 1.0000   
         C         C         1.0       0.7663140388041774  0.35865332417392    0.6779565705466751 1.0000   
         C         C         1.0       0.7997738881783545  0.37095371419859363           0.6659172446441584 1.0000   
         C         C         1.0       0.8186507228532001  0.4042989095688706  0.654834176858482  1.0000   
         H         H         1.0       0.8842269812709097  0.27794276603652507           0.5605061716502504 1.0000   
         H         H         1.0       0.8732098072410872  0.3587069325694245  0.5236678643464795 1.0000   
         H         H         1.0       0.8286272073851916  0.3162752498192225  0.48911895023285157          1.0000   
         H         H         1.0       0.8434371830151879  0.23767667026274183           0.5259957140219712 1.0000   
         H         H         1.0       0.9276963809556662  0.41915303690329514           0.5497165299967751 1.0000   
         H         H         1.0       0.9525998984779757  0.4557418996754616  0.5108956340675895 1.0000   
         H         H         1.0       0.9818711823616675  0.38640872922733205           0.47243026059101206          1.0000   
         H         H         1.0       0.9595309947065627  0.3500936959016833  0.5149130722768943 1.0000   
         H         H         1.0       0.8437070430508702  0.3264645616011591  0.5833135645606871 1.0000   
         H         H         1.0       0.8197834121081621  0.3573578202549231  0.6118021542374236 1.0000   
         H         H         1.0       0.9226275047917071  0.43214152933297295           0.6346400408738379 1.0000   
         H         H         1.0       0.9486607753450824  0.4073932821992325  0.6057052986790276 1.0000   
         H         H         1.0       0.8004867622333104  0.41988628309860215           0.5481147802322964 1.0000   
         H         H         1.0       0.8010002990402584  0.41184297940890247           0.6009329811079499 1.0000   
         H         H         1.0       0.9116525930683369  0.47333035826690706           0.6021155095590883 1.0000   
         H         H         1.0       0.9153324661696609  0.47926683842966006           0.5516992740798959 1.0000   
         H         H         1.0       0.8737444940601591  0.4033055593679321  0.6922621431076064 1.0000   
         H         H         1.0       0.9072458562583872  0.4368950683453815  0.7320232217467739 1.0000   
         H         H         1.0       0.9262493481599192  0.5283084253785966  0.6856512578581271 1.0000   
         H         H         1.0       0.8926881319875533  0.49448791474024156           0.6460636761665172 1.0000   
         H         H         1.0       0.8171234008489681  0.451888615898521   0.6527415916170256 1.0000   
         H         H         1.0       0.7658478909910545  0.4317635223549792  0.6758148099091685 1.0000   
         H         H         1.0       0.7545456717382457  0.3352442211394464  0.6910376303415742 1.0000   
         H         H         1.0       0.810919163650395   0.35445869831228244           0.6667933982203839 1.0000   
         C         C         1.0       0.9358423162692828  0.7382254313267638  0.6191696637260392 1.0000   
         C         C         1.0       0.9022711071187226  0.7290532923847862  0.6233120052943809 1.0000   
         C         C         1.0       0.8745075930056365  0.6939520147742224  0.6166595849344322 1.0000   
         C         C         1.0       0.8818129383634403  0.6686011971001007  0.6060728894976979 1.0000   
         C         C         1.0       0.9176269658737318  0.6812706958164949  0.6022677767284519 1.0000   
         C         C         1.0       0.9431744650063117  0.7144496656897236  0.6087143144678516 1.0000   
         H         H         1.0       0.8958587196364107  0.7484722208230471  0.6284632469895569 1.0000   
         H         H         1.0       0.8477717916373175  0.6891535729707536  0.6192031694368186 1.0000   
         H         H         1.0       0.925461832559535   0.6638992919306991  0.5970458266175563 1.0000   
         H         H         1.0       0.9688012124427925  0.7191857640890144  0.6016533341375458 1.0000   
         C         C         1.0       0.8730698559256982  0.6183625551781622  0.550496579203505  1.0000   
         C         C         1.0       0.8599752168641096  0.6065720617314249  0.579794934019257  1.0000   
         C         C         1.0       0.8441442184124285  0.5712682380885016  0.5848733666207332 1.0000   
         C         C         1.0       0.8419249203785497  0.5484746591702174  0.5631939167636775 1.0000   
         C         C         1.0       0.8522780105357787  0.5602433290557572  0.5344912444650959 1.0000   
         C         C         1.0       0.8675196336986484  0.5950288692251497  0.528137574211222  1.0000   
         C         C         1.0       0.8535720410454403  0.6290563727961292  0.6036416306677411 1.0000   
         C         C         1.0       0.8154374487819194  0.6197717660889922  0.5926552849223382 1.0000   
         C         C         1.0       0.7842869891564314  0.5887753606651798  0.6007167156742436 1.0000   
         C         C         1.0       0.7532653016484291  0.5772112943586426  0.5848965685578306 1.0000   
         C         C         1.0       0.7536668597192924  0.5954612169851768  0.5597063314487063 1.0000   
         C         C         1.0       0.7840111628900563  0.6253073157986542  0.5514817842414979 1.0000   
         C         C         1.0       0.8142861624994115  0.6391941522625265  0.5683489540091018 1.0000   
         C         C         1.0       0.8790809967634106  0.6107021929600505  0.6480739992184876 1.0000   
         C         C         1.0       0.8752187650812291  0.5957852743935563  0.67617170851476   1.0000   
         C         C         1.0       0.8498820958863152  0.5922195487676755  0.6969270454124321 1.0000   
         C         C         1.0       0.8319317259336834  0.6087374292392405  0.6890887970327728 1.0000   
         C         C         1.0       0.833590943630043   0.621187426076349   0.6606419398675013 1.0000   
         C         C         1.0       0.8560621351113982  0.6208253310036     0.6395257367908028 1.0000   
         C         C         1.0       0.8309101895443889  0.5599470523800473  0.7190390078375906 1.0000   
         C         C         1.0       0.8977884922685175  0.5275851286129389  0.759739903841965  1.0000   
         C         C         1.0       0.9097328761802664  0.5620613696944613  0.7543320511474656 1.0000   
         C         C         1.0       0.8883117227267728  0.5708418368843574  0.7419209976661412 1.0000   
         C         C         1.0       0.8543620084175818  0.54711246447678    0.7349952708683474 1.0000   
         C         C         1.0       0.8408416266817401  0.5127097758442175  0.7428612731870611 1.0000   
         C         C         1.0       0.8632576841559183  0.5029657859384689  0.7542434123330863 1.0000   
         C         C         1.0       0.8055111290647812  0.531140927591121   0.6936958570917617 1.0000   
         C         C         1.0       0.8187907085827124  0.5173973615097469  0.6734397659538855 1.0000   
         C         C         1.0       0.8033922261224102  0.5029043544736647  0.6454632866495708 1.0000   
         C         C         1.0       0.7731833659951364  0.5012604694111348  0.6384574761099272 1.0000   
         C         C         1.0       0.7571242833088735  0.5124932366533572  0.6599964087046197 1.0000   
         C         C         1.0       0.7727709909843693  0.5256034190406845  0.6874353751478421 1.0000   
         C         C         1.0       0.7828533404224222  0.5394060326010978  0.7620271484141703 1.0000   
         C         C         1.0       0.7706117808629309  0.5450527310391057  0.7885021745778021 1.0000   
         C         C         1.0       0.7875808060620687  0.5757545452602876  0.8040159025623077 1.0000   
         C         C         1.0       0.8179098980203756  0.6007252978507728  0.7912904469692189 1.0000   
         C         C         1.0       0.8304716011059411  0.5969602635801031  0.7649963192804113 1.0000   
         C         C         1.0       0.813301746637235   0.5649825770130429  0.7493058384985642 1.0000   
         H         H         1.0       0.887570720834475   0.6439776064845697  0.5457814814603283 1.0000   
         H         H         1.0       0.8296267032076581  0.5611909103021898  0.6057266866572864 1.0000   
         H         H         1.0       0.8299192856977988  0.5212364238812105  0.5680083115399145 1.0000   
         H         H         1.0       0.8777130082856244  0.603763172736038   0.5048168432739543 1.0000   
         H         H         1.0       0.7855949669898861  0.5709472340789042  0.6176094075113102 1.0000   
         H         H         1.0       0.7316145615138118  0.5566042702323724  0.5933910962102682 1.0000   
         H         H         1.0       0.7837699898457029  0.6395311500738778  0.5310900893832593 1.0000   
         H         H         1.0       0.8379309158438979  0.6643047009563071  0.5604785704255307 1.0000   
         H         H         1.0       0.8976621865154986  0.61333304389882    0.6308060367823906 1.0000   
         H         H         1.0       0.8887647325277479  0.5828561336306353  0.6816760828816394 1.0000   
         H         H         1.0       0.8101605854416396  0.6070164290218996  0.7019133977905225 1.0000   
         H         H         1.0       0.8151371954124771  0.6285803051895     0.6542700916913151 1.0000   
         H         H         1.0       0.9366504196411951  0.5797175551253989  0.7607683137580254 1.0000   
         H         H         1.0       0.8971599909251892  0.5967711129358603  0.7390343769742437 1.0000   
         H         H         1.0       0.8135646841500193  0.4939455238901231  0.7391655076186964 1.0000   
         H         H         1.0       0.853184384334424   0.47721212695226006           0.7609760100714096 1.0000   
         H         H         1.0       0.8438534396500517  0.5189159331165528  0.6785497391452886 1.0000   
         H         H         1.0       0.8184323460729657  0.49505314721108623           0.6304465814196298 1.0000   
         H         H         1.0       0.7318176911694312  0.5098925406800081  0.6546043821452413 1.0000   
         H         H         1.0       0.7613040401017819  0.5371093973931413  0.701258002546749  1.0000   
         H         H         1.0       0.7689184651072944  0.5134566664102341  0.7515022799909961 1.0000   
         H         H         1.0       0.7445495072034123  0.5243250653822352  0.7962724665316115 1.0000   
         H         H         1.0       0.831844561841064   0.6268805399208511  0.80042493960342   1.0000   
         H         H         1.0       0.8513933513957824  0.6193680977400322  0.752152648458881  1.0000   
         C         C         1.0       0.5148816525570532  0.39357187393054394           0.4440589336636826 1.0000   
         C         C         1.0       0.518831357127837   0.4141931568817152  0.4206978776811863 1.0000   
         C         C         1.0       0.5494390999714749  0.44395712656949005           0.4157366328838942 1.0000   
         C         C         1.0       0.5782508463252644  0.45485763011241864           0.43285610161521154          1.0000   
         C         C         1.0       0.5742025646670221  0.43431241779840973           0.4571296174721614 1.0000   
         C         C         1.0       0.5431447346122038  0.40538116394662294           0.46303491572734073          1.0000   
         H         H         1.0       0.49840843813801755           0.40382783812190726          0.40487628920109897          1.0000   
         H         H         1.0       0.5511845977055946  0.4540768980740847  0.3934507560652881 1.0000   
         H         H         1.0       0.593958062308813   0.43874696250989553           0.4722710392969191 1.0000   
         H         H         1.0       0.543492809458724   0.3890009205541471  0.4820802026226953 1.0000   
         C         C         1.0       0.6333081086284642  0.5084649106839008  0.47554760188924444          1.0000   
         C         C         1.0       0.6437310054363977  0.5028105016986287  0.44692542811604175          1.0000   
         C         C         1.0       0.6781969538101514  0.5139585731061611  0.4414542089446147 1.0000   
         C         C         1.0       0.7034402420866948  0.5305903442606934  0.463886228766873  1.0000   
         C         C         1.0       0.6921454448793921  0.5335831754187321  0.4933154706287664 1.0000   
         C         C         1.0       0.6589623866125317  0.5230971934128372  0.4980381951158216 1.0000   
         C         C         1.0       0.616226297723891   0.48608183303700836           0.42075545462421465          1.0000   
         C         C         1.0       0.6161795926122109  0.5206799921534688  0.41098843543613217          1.0000   
         C         C         1.0       0.6425325509136629  0.5461468712215863  0.3936032283572139 1.0000   
         C         C         1.0       0.6399916746662623  0.5742772682698634  0.38353859674087304          1.0000   
         C         C         1.0       0.6112345749916576  0.5762490211137976  0.38954021501527164          1.0000   
         C         C         1.0       0.5855109527212501  0.5527444390059748  0.4094665564363185 1.0000   
         C         C         1.0       0.5896914636692218  0.5258123485549692  0.42064982688397573          1.0000   
         C         C         1.0       0.6279438518966011  0.43850281929039103           0.40036447508692175          1.0000   
         C         C         1.0       0.6258628579433132  0.41638703556193013           0.37792860710099   1.0000   
         C         C         1.0       0.6252008676320383  0.4234374185303324  0.34746953312574286          1.0000   
         C         C         1.0       0.6254973466650403  0.453851739379671   0.34170463086435476          1.0000   
         C         C         1.0       0.6219479182383764  0.4733489585615439  0.3646529614966655 1.0000   
         C         C         1.0       0.6224642199289513  0.4653383401922559  0.39460486850257753          1.0000   
         C         C         1.0       0.6185809474789914  0.39586303924153027           0.31948290148263675          1.0000   
         C         C         1.0       0.6834896160600238  0.42696510739765653           0.2373371404005526 1.0000   
         C         C         1.0       0.6507629712777978  0.3986166870483675  0.23818395136403095          1.0000   
         C         C         1.0       0.6288961400124283  0.39208936686572043           0.2625432841584827 1.0000   
         C         C         1.0       0.6409762804517487  0.4126251897342192  0.28850744412670903          1.0000   
         C         C         1.0       0.6738256982326819  0.44184593533600397           0.286974704027278  1.0000   
         C         C         1.0       0.6958261407128384  0.44871949800394806           0.2619976366063516 1.0000   
         C         C         1.0       0.5773609483223324  0.37969234894528864           0.31656364102930273          1.0000   
         C         C         1.0       0.5634323542529235  0.3935898418387235  0.2966613606357154 1.0000   
         C         C         1.0       0.5291563451106686  0.38171115540645445           0.29354573810009416          1.0000   
         C         C         1.0       0.5053959593918932  0.3512197049878378  0.3091139130872939 1.0000   
         C         C         1.0       0.5181511353515665  0.3389491039012154  0.3306871105513803 1.0000   
         C         C         1.0       0.5537925572416565  0.35327043124958635           0.3351970208102472 1.0000   
         C         C         1.0       0.6134562073995234  0.3381599070662806  0.31137199088541945          1.0000   
         C         C         1.0       0.6298945076159871  0.32017700588765136           0.305409294796867  1.0000   
         C         C         1.0       0.6646010631088448  0.33402193689031767           0.31445483299788185          1.0000   
         C         C         1.0       0.6816377494623694  0.36478720129007774           0.33067366994762054          1.0000   
         C         C         1.0       0.6659551665185068  0.38282313569203047           0.33611045586397414          1.0000   
         C         C         1.0       0.6307609828968894  0.3697997531718068  0.3256767232746973 1.0000   
         H         H         1.0       0.6071318933727842  0.50115894345587    0.4809011167004435 1.0000   
         H         H         1.0       0.6859598998539069  0.5101553686512325  0.41965511289091584          1.0000   
         H         H         1.0       0.7301268965166999  0.5380544898665477  0.46222411422846504          1.0000   
         H         H         1.0       0.6509677886039746  0.5188494592973887  0.5209391136556188 1.0000   
         H         H         1.0       0.6665673348211307  0.5450817429395969  0.3872641596967113 1.0000   
         H         H         1.0       0.6589316667098983  0.591383736608449   0.3672657756308772 1.0000   
         H         H         1.0       0.5624790979978189  0.5530172181803785  0.4155164494809582 1.0000   
         H         H         1.0       0.57055460516899    0.5092174449010707  0.436719636322478  1.0000   
         H         H         1.0       0.6362131219171794  0.4366737940841065  0.4219721094092827 1.0000   
         H         H         1.0       0.6283358970157468  0.39409725866024164           0.38468372448635574          1.0000   
         H         H         1.0       0.6233395954221868  0.46084010563071687           0.31783758715944394          1.0000   
         H         H         1.0       0.6202425698157106  0.4958043596729004  0.35693949712798456          1.0000   
         H         H         1.0       0.6411910974543547  0.38027628600616703           0.22006459219890337          1.0000   
         H         H         1.0       0.6020172062104628  0.3708583271150659  0.2608879802826959 1.0000   
         H         H         1.0       0.683211883937345   0.45718457463949375           0.3078834688188872 1.0000   
         H         H         1.0       0.7199888217904651  0.4734253076081141  0.2609878382159513 1.0000   
         H         H         1.0       0.5805949721501169  0.41731274995543344           0.28495349566411277          1.0000   
         H         H         1.0       0.52112384363364    0.3937187321498848  0.27700088477906026          1.0000   
         H         H         1.0       0.5000279273224211  0.314995703691504   0.3422048070520659 1.0000   
         H         H         1.0       0.5636521300881365  0.34421966550061817           0.3536455214629465 1.0000   
         H         H         1.0       0.5857566283406975  0.3247856505460865  0.30275856572105947          1.0000   
         H         H         1.0       0.6154712600176511  0.2951893012836021  0.2941745413347746 1.0000   
         H         H         1.0       0.7060980288061788  0.37402988514337937           0.3408952833804319 1.0000   
         H         H         1.0       0.6793840124156867  0.4067752030647169  0.3469923484513466 1.0000   
         C         C         1.0       0.5472690262069463  0.19130790580732646           0.5177735088929114 1.0000   
         C         C         1.0       0.5629667557119223  0.19255008043256883           0.4904692283611584 1.0000   
         C         C         1.0       0.5715762603471204  0.21767194941925852           0.47079387889573243          1.0000   
         C         C         1.0       0.5667962263013011  0.24479177506939878           0.4771040428670344 1.0000   
         C         C         1.0       0.5540861080638545  0.24537009078969998           0.5071672259395521 1.0000   
         C         C         1.0       0.5437228535097424  0.2183151900249674  0.5265731961213623 1.0000   
         H         H         1.0       0.5621904969818939  0.1699414219196471  0.48333890889651326          1.0000   
         H         H         1.0       0.5816423455628673  0.2130823020735773  0.45020922325610824          1.0000   
         H         H         1.0       0.5507420586841012  0.26680999992611654           0.5129957665571262 1.0000   
         H         H         1.0       0.5327456284466886  0.21938855648574287           0.5477770927062735 1.0000   
         C         C         1.0       0.5163526610518696  0.2715634221983702  0.4557334514799732 1.0000   
         C         C         1.0       0.5520772456539362  0.2902829243631911  0.4494814882681839 1.0000   
         C         C         1.0       0.5653916296232315  0.3221192758006151  0.4351020953229637 1.0000   
         C         C         1.0       0.5441527990165966  0.3360453562982843  0.4309659683720545 1.0000   
         C         C         1.0       0.509702836648039   0.31759053427845574           0.4377786813107366 1.0000   
         C         C         1.0       0.49442080067956745           0.28485351065719233          0.45133121153499783          1.0000   
         C         C         1.0       0.5770531476913413  0.2747388154493897  0.45205599605583313          1.0000   
         C         C         1.0       0.5733277086122536  0.26039237244130453           0.4185359485519864 1.0000   
         C         C         1.0       0.6010805921581475  0.27767556675218225           0.3985080483577706 1.0000   
         C         C         1.0       0.5993274957634633  0.2664520830269301  0.3694144568740754 1.0000   
         C         C         1.0       0.5710054018707323  0.23648719721554165           0.3598214360935706 1.0000   
         C         C         1.0       0.542940216348151   0.21996405600880092           0.3785978434203944 1.0000   
         C         C         1.0       0.5448035855263604  0.2310085756907751  0.40858116078261847          1.0000   
         C         C         1.0       0.6203164971817503  0.32413474792023916           0.4868674967200125 1.0000   
         C         C         1.0       0.6471946193086536  0.3366431878412714  0.5069764904558323 1.0000   
         C         C         1.0       0.6741114110133173  0.3292780864455525  0.5021457232355876 1.0000   
         C         C         1.0       0.6738299480652252  0.31215389710905717           0.4757838256472596 1.0000   
         C         C         1.0       0.6437763436206344  0.2955431114889165  0.4601263641421074 1.0000   
         C         C         1.0       0.6165771253673497  0.3006664103115302  0.46456497425562554          1.0000   
         C         C         1.0       0.7016655958560079  0.334881727806135   0.5274219805128264 1.0000   
         C         C         1.0       0.7225181483138955  0.4179310683485571  0.5914332031894864 1.0000   
         C         C         1.0       0.7194488812242538  0.3882514661720651  0.5999112532712039 1.0000   
         C         C         1.0       0.7147048686866602  0.3635992792901283  0.5793306373423162 1.0000   
         C         C         1.0       0.7102983715032947  0.3669997009873381  0.5491303115019823 1.0000   
         C         C         1.0       0.7140429738495038  0.39835592878981535           0.539895072277569  1.0000   
         C         C         1.0       0.7185300120537144  0.42349623883931353           0.5611145326671496 1.0000   
         C         C         1.0       0.7395496370972635  0.34860250967244805           0.5139971314949988 1.0000   
         C         C         1.0       0.7616259758584063  0.34105131070029776           0.5300124266258547 1.0000   
         C         C         1.0       0.7966949271827725  0.35706323881652496           0.5226106744394009 1.0000   
         C         C         1.0       0.8108175893551355  0.38367403347550055           0.5001353181557647 1.0000   
         C         C         1.0       0.788556925882658   0.38827567468573704           0.48321896629133165          1.0000   
         C         C         1.0       0.752989789426352   0.37109719200766056           0.48975769807721553          1.0000   
         C         C         1.0       0.6884246067124156  0.27124722121675066           0.5362128869724083 1.0000   
         C         C         1.0       0.6699276474142656  0.2393230183085951  0.5497321897699785 1.0000   
         C         C         1.0       0.6422746362639495  0.2306105161259322  0.568320444601032  1.0000   
         C         C         1.0       0.6309985281030897  0.253988994053447   0.5707284145478445 1.0000   
         C         C         1.0       0.6519496074510656  0.28714819720068396           0.5608290260660282 1.0000   
         C         C         1.0       0.6820353530197983  0.2975471035002479  0.5439679802057071 1.0000   
         H         H         1.0       0.5024589261926427  0.24583375885322614           0.4628698807392215 1.0000   
         H         H         1.0       0.591125370115597   0.3369299004782829  0.4276166359544036 1.0000   
         H         H         1.0       0.5543186796455881  0.36067496486497025           0.4173508977447824 1.0000   
         H         H         1.0       0.4673713273147671  0.26904069771963796           0.455238460272587  1.0000   
         H         H         1.0       0.6262170412653659  0.3022694587727388  0.40290787826476016          1.0000   
         H         H         1.0       0.6229117081470253  0.2811356416969885  0.3548472653141969 1.0000   
         H         H         1.0       0.5205834982758142  0.19807958402267073           0.3684966132203852 1.0000   
         H         H         1.0       0.5249353553235734  0.2154735383137314  0.4250265987705736 1.0000   
         H         H         1.0       0.5987305862643709  0.32848388293134173           0.49040423385120707          1.0000   
         H         H         1.0       0.6454806447793954  0.3481808948297205  0.5273880772853178 1.0000   
         H         H         1.0       0.6910440379705751  0.3036421242129205  0.4724918542406986 1.0000   
         H         H         1.0       0.6423228203577092  0.27892652306143384           0.4422564228593467 1.0000   
         H         H         1.0       0.7218698374938056  0.38414341805884294           0.6240594940643391 1.0000   
         H         H         1.0       0.7150124409961487  0.3421828256143668  0.5885062953206297 1.0000   
         H         H         1.0       0.7118208682165263  0.4010545444891229  0.5162371186350373 1.0000   
         H         H         1.0       0.7161182678536847  0.4433376038142823  0.5504153220870762 1.0000   
         H         H         1.0       0.7520764128945249  0.3242471330840233  0.5498728032467914 1.0000   
         H         H         1.0       0.8164631935669961  0.3580765996188814  0.5382493979769932 1.0000   
         H         H         1.0       0.7988626632776267  0.406620477269365   0.4650475093095474 1.0000   
         H         H         1.0       0.7369318409692173  0.3766554452672719  0.47708583836422164          1.0000   
         H         H         1.0       0.7119971261422187  0.27685503257748056           0.523559947259725  1.0000   
         H         H         1.0       0.6757874263682734  0.21935133587228792           0.5462071374804048 1.0000   
         H         H         1.0       0.6078908161180111  0.24988533983252625           0.5860643689118229 1.0000   
         H         H         1.0       0.6470453308555928  0.30662599294420906           0.5691736502352607 1.0000   
         C         C         1.0       0.8305069416939727  0.5151113482103414  0.4564103567288905 1.0000   
         C         C         1.0       0.8534812812977299  0.5443807896061756  0.4402105850041628 1.0000   
         C         C         1.0       0.8753925417436309  0.5439582698609222  0.41772147427185247          1.0000   
         C         C         1.0       0.8738751534917888  0.512622734834376   0.41154558142552816          1.0000   
         C         C         1.0       0.8472815310576953  0.48264435867678357           0.42359854916243084          1.0000   
         C         C         1.0       0.8246989942984048  0.4840376923862983  0.4451998012696485 1.0000   
         H         H         1.0       0.8603824606482584  0.5694910014813526  0.45014065767764644          1.0000   
         H         H         1.0       0.8961291081107181  0.5673061660234698  0.40898051960891824          1.0000   
         H         H         1.0       0.8404271059200263  0.45726094506085346           0.415444507738015  1.0000   
         H         H         1.0       0.8044079566518408  0.4591490194704185  0.4543363598066927 1.0000   
         C         C         1.0       0.9131015949058038  0.4782634062058816  0.43146116903193854          1.0000   
         C         C         1.0       0.9130243959179704  0.48531869415607604           0.401213861550976  1.0000   
         C         C         1.0       0.9310475041749181  0.4748822911157342  0.38133010732885486          1.0000   
         C         C         1.0       0.9445941857739519  0.4550606658313548  0.39101224579274174          1.0000   
         C         C         1.0       0.9419634892017675  0.4467491046837247  0.420882940952481  1.0000   
         C         C         1.0       0.9268667348888427  0.4583310974048593  0.441453542524176  1.0000   
         C         C         1.0       0.9010028513350303  0.5105684081995068  0.3890601769486972 1.0000   
         C         C         1.0       0.9364219104560324  0.5450790395123897  0.3819682106408428 1.0000   
         C         C         1.0       0.9523576937204318  0.5534560991622347  0.353748036634895  1.0000   
         C         C         1.0       0.9819992856023444  0.5839210973408814  0.34740115441342306          1.0000   
         C         C         1.0       0.9974020930897449  0.606865178156063   0.37208982835711224          1.0000   
         C         C         1.0       0.9858043139309884  0.5981152252557851  0.4016969776767678 1.0000   
         C         C         1.0       0.9552219053829591  0.5683297368380729  0.40597712206677095          1.0000   
         C         C         1.0       0.8665683985807777  0.46686377155923997           0.3437578735370044 1.0000   
         C         C         1.0       0.8630404794231913  0.461832481524051   0.3130780182433866 1.0000   
         C         C         1.0       0.8676400574745561  0.489337053739272   0.29630795432274315          1.0000   
         C         C         1.0       0.8657318928789334  0.5151658395574216  0.31142870524404   1.0000   
         C         C         1.0       0.8693088061471892  0.5185992648452314  0.3428523507545219 1.0000   
         C         C         1.0       0.8756111323608003  0.4967983156024842  0.359613294350115  1.0000   
         C         C         1.0       0.8743483506489242  0.4921249562011351  0.2604676083273488 1.0000   
         C         C         1.0       0.939023633714081   0.44728792718946625           0.23904048313303897          1.0000   
         C         C         1.0       0.9150498344827322  0.4459735986114937  0.21767795010023924          1.0000   
         C         C         1.0       0.8949889876490559  0.45979348948266113           0.22418686734303855          1.0000   
         C         C         1.0       0.9006874116278805  0.47822338295605527           0.2502214789762748 1.0000   
         C         C         1.0       0.9280323779887073  0.4825921618183511  0.26993359307346926          1.0000   
         C         C         1.0       0.9453758026020738  0.4653083515943902  0.26474886533996733          1.0000   
         C         C         1.0       0.8977109972084976  0.5295330633331666  0.24564883596488166          1.0000   
         C         C         1.0       0.9227877456259138  0.557561566939618   0.2622146593100941 1.0000   
         C         C         1.0       0.9397974781900511  0.5896000377419611  0.2512171273559525 1.0000   
         C         C         1.0       0.9309680764964212  0.595936042795278   0.2222595062751765 1.0000   
         C         C         1.0       0.9127701720022551  0.5679539625163194  0.20204771469610386          1.0000   
         C         C         1.0       0.8955762415238675  0.5354550772540331  0.21515133646174697          1.0000   
         C         C         1.0       0.8167639214545845  0.48926564239762116           0.24298181607773245          1.0000   
         C         C         1.0       0.7837879923389013  0.4722503215270126  0.2297593163250578 1.0000   
         C         C         1.0       0.7678792011760756  0.4385791023374297  0.22553898530940966          1.0000   
         C         C         1.0       0.7868442270089806  0.4217539951179216  0.23109802242573171          1.0000   
         C         C         1.0       0.8172824194839339  0.43831857933566726           0.24402782662403458          1.0000   
         C         C         1.0       0.8352242715012548  0.4731711093938337  0.2494111977024604 1.0000   
         H         H         1.0       0.9032501876875948  0.48784797858117035           0.4478804738398636 1.0000   
         H         H         1.0       0.932588736621846   0.4802867959521323  0.3572057346401672 1.0000   
         H         H         1.0       0.9564754406873018  0.44599025568249523           0.3749484055151124 1.0000   
         H         H         1.0       0.9245967315410544  0.45256888950814944           0.46593279039197577          1.0000   
         H         H         1.0       0.9428563271710367  0.5363821484445347  0.3354762658163431 1.0000   
         H         H         1.0       0.9915753841103271  0.5910390548916524  0.32482136528475075          1.0000   
         H         H         1.0       0.9984700697708488  0.6151197181512245  0.42051657853290847          1.0000   
         H         H         1.0       0.9453663778218633  0.5643156213263266  0.4294083186511515 1.0000   
         H         H         1.0       0.8635765577957909  0.4448600763793486  0.35570696304517974          1.0000   
         H         H         1.0       0.8615279345264852  0.43890001791381317           0.30151201535970984          1.0000   
         H         H         1.0       0.8669907895191643  0.5356946622410628  0.2991691194662501 1.0000   
         H         H         1.0       0.8692582433188721  0.5411803646413718  0.35281028414792676          1.0000   
         H         H         1.0       0.905629934773406   0.4310581572438022  0.1965622685861189 1.0000   
         H         H         1.0       0.8773500138207235  0.45661294022432913           0.20947495040889327          1.0000   
         H         H         1.0       0.9308303815444257  0.4952974082296143  0.29121085687657094          1.0000   
         H         H         1.0       0.9645853817620216  0.46901306517174673           0.28246058099395177          1.0000   
         H         H         1.0       0.9289176384768888  0.5564020267387392  0.2861661582666974 1.0000   
         H         H         1.0       0.9539160005950473  0.6085776105044524  0.268011982816978  1.0000   
         H         H         1.0       0.9054832042239099  0.5725290762269702  0.18012351294619403          1.0000   
         H         H         1.0       0.8768269935236128  0.5153012097038256  0.20003856900329975          1.0000   
         H         H         1.0       0.8290526995750881  0.51724179496672    0.24564396575618566          1.0000   
         H         H         1.0       0.7706716397791481  0.4861018589153997  0.22359505314394418          1.0000   
         H         H         1.0       0.7765552617801733  0.39645415187943867           0.2246326711659978 1.0000   
         H         H         1.0       0.8299751454233424  0.42301448123733226           0.2490118071275184 1.0000   
         C         C         1.0       0.6434873450757962  0.33339900439289866           0.153429022779163  1.0000   
         C         C         1.0       0.6103706256479002  0.31113024478644313           0.16091502029347818          1.0000   
         C         C         1.0       0.5848201187245877  0.3203620157617013  0.16318761776342205          1.0000   
         C         C         1.0       0.5933872638906804  0.35434157768510294           0.16159292044890866          1.0000   
         C         C         1.0       0.6293054982581769  0.378032617251732   0.1542096809982409 1.0000   
         C         C         1.0       0.6536151104941721  0.36862204002446236           0.15084738797132044          1.0000   
         H         H         1.0       0.5988014004061354  0.2831845635163698  0.16458679813454907          1.0000   
         H         H         1.0       0.5581698828470607  0.2984707486985273  0.16724143729673968          1.0000   
         H         H         1.0       0.6408164016868388  0.4062788513499855  0.1530184509984447 1.0000   
         H         H         1.0       0.6792933577567271  0.38834640095535394           0.1461538456080966 1.0000   
         C         C         1.0       0.6003782199664781  0.42297890690436346           0.19396897450552125          1.0000   
         C         C         1.0       0.5804051324860572  0.40693838574411806           0.16855624462710825          1.0000   
         C         C         1.0       0.5795681681680706  0.4284215523606829  0.14780786156847825          1.0000   
         C         C         1.0       0.5933005366059338  0.4628547353992793  0.15213613990782454          1.0000   
         C         C         1.0       0.6124285360167866  0.4777874523151531  0.17870416690684882          1.0000   
         C         C         1.0       0.6178373874978085  0.4576172732288185  0.198498406496625  1.0000   
         C         C         1.0       0.5636204617010471  0.3653299660052368  0.1628387782903142 1.0000   
         C         C         1.0       0.537373305478199   0.34866681600601224           0.19196171876326856          1.0000   
         C         C         1.0       0.511058257374846   0.3559438850210453  0.19611274798716402          1.0000   
         C         C         1.0       0.48738561568090566           0.3426800707009064 0.2202141787000897 1.0000   
         C         C         1.0       0.49037241460285425           0.32176891201093066          0.2414526295708358 1.0000   
         C         C         1.0       0.5174577914348107  0.3154841089523534  0.23837081426520562          1.0000   
         C         C         1.0       0.5421508618697929  0.3308998365679528  0.21557211452190717          1.0000   
         C         C         1.0       0.5619819654103122  0.362966367255404   0.10446222855792729          1.0000   
         C         C         1.0       0.5488321348563351  0.3453083136489885  0.07805888786718082          1.0000   
         C         C         1.0       0.5157389244245267  0.3165855606464106  0.07587887113463969          1.0000   
         C         C         1.0       0.49538161747389364           0.3052268087668729 0.10205016040901779          1.0000   
         C         C         1.0       0.5093998725988471  0.3214988628755193  0.12934509933856467          1.0000   
         C         C         1.0       0.5442507569050814  0.34993451808804765           0.13144571806564856          1.0000   
         C         C         1.0       0.4999961560777734  0.29697524404490955           0.04490486858135465          1.0000   
         C         C         1.0       0.43697819043504643           0.34221596711739616          0.021810013861488287         1.0000   
         C         C         1.0       0.4714636809924719  0.3624481732062526  0.02839380807779368          1.0000   
         C         C         1.0       0.49055572357185373           0.34852348866478794          0.03501164139145252          1.0000   
         C         C         1.0       0.4768249074341975  0.31297069947512224           0.037102685013758796         1.0000   
         C         C         1.0       0.4409727423554271  0.2930959939090324  0.032785555382364384         1.0000   
         C         C         1.0       0.4211500183328038  0.30705711082421294           0.02414873932767203          1.0000   
         C         C         1.0       0.481224192207127   0.25541113216251843           0.049651657484735726         1.0000   
         C         C         1.0       0.4937715055529052  0.24076300847592721           0.07009720525166296          1.0000   
         C         C         1.0       0.47998490365751384           0.20537932155881633          0.07197712004441813          1.0000   
         C         C         1.0       0.45436746943630585           0.18497807654376103          0.05160254103858364          1.0000   
         C         C         1.0       0.44352991407256254           0.19877175567269284          0.030203444032358417         1.0000   
         C         C         1.0       0.4576343971492463  0.23337740577512014           0.028565664503261923         1.0000   
         C         C         1.0       0.5198401024749343  0.3107331407185839  0.9882562902793789 1.0000   
         C         C         1.0       0.5382830642413393  0.30829136619052416           0.9642419669286526 1.0000   
         C         C         1.0       0.5670098718413251  0.3057269163737151  0.9690392073436065 1.0000   
         C         C         1.0       0.5760057946965607  0.3032976111268823  0.9982359694844668 1.0000   
         C         C         1.0       0.5570815562737756  0.3033954622699921  0.022386551817125344         1.0000   
         C         C         1.0       0.5272377160391812  0.30479085597429567           0.01796657493678988          1.0000   
         H         H         1.0       0.5990876876196084  0.4081308111478515  0.213029145543176  1.0000   
         H         H         1.0       0.5660089808085449  0.41868703311549943           0.12761158846794818          1.0000   
         H         H         1.0       0.5883695337904684  0.4772199483442322  0.1356407819570625 1.0000   
         H         H         1.0       0.6296558116260009  0.4672782543238144  0.22026839360025732          1.0000   
         H         H         1.0       0.504644027746102   0.3697303741619446  0.180653954175342  1.0000   
         H         H         1.0       0.4676815514740755  0.3503056562115131  0.22033260986920844          1.0000   
         H         H         1.0       0.5235251398435937  0.30364552326985245           0.2565687730303009 1.0000   
         H         H         1.0       0.5678003524466149  0.3322428083430786  0.2155708276477872 1.0000   
         H         H         1.0       0.5896823960516625  0.3846421155834792  0.10663114947378252          1.0000   
         H         H         1.0       0.5652022391318785  0.3545474105840719  0.057287593092803284         1.0000   
         H         H         1.0       0.4664267970872736  0.283260528612819   0.10260328301479242          1.0000   
         H         H         1.0       0.49380814851786586           0.3100267570086865 0.14990426389199832          1.0000   
         H         H         1.0       0.48400333306940424           0.3894063096054408 0.023037399203692077         1.0000   
         H         H         1.0       0.5179070198392164  0.36614963078833374           0.03861553484627511          1.0000   
         H         H         1.0       0.4242128921978841  0.2654111478351608  0.034720742282515316         1.0000   
         H         H         1.0       0.3920176828759579  0.29038511052949756           0.021350914015405564         1.0000   
         H         H         1.0       0.514050645908734   0.2572934853561787  0.08792826064564288          1.0000   
         H         H         1.0       0.4880182193464225  0.1915694045126843  0.08634530967419875          1.0000   
         H         H         1.0       0.4236700759260454  0.1852656907209714  0.013130958357730371         1.0000   
         H         H         1.0       0.4496983691282142  0.24385744163461148           0.009346180993915265         1.0000   
         H         H         1.0       0.49444781776076646           0.30754067807844737          0.9837403963209826 1.0000   
         H         H         1.0       0.5295492335512266  0.3107704496463928  0.9422670785576742 1.0000   
         H         H         1.0       0.597883093016378   0.2997209739557     0.0010281571962942326        1.0000   
         H         H         1.0       0.5656149673771442  0.3018488251837919  0.0441688419039856 1.0000   
         C         C         1.0       0.5526322746525804  0.5468860225714786  0.8649782597619786 1.0000   
         C         C         1.0       0.5839746938080261  0.551872055825715   0.8735263071637744 1.0000   
         C         C         1.0       0.5837933409573288  0.5260935963530141  0.8907903721067368 1.0000   
         C         C         1.0       0.5526458409559966  0.4966546656258113  0.901450997748899  1.0000   
         C         C         1.0       0.5231586197915615  0.4918489455559843  0.8875723653175227 1.0000   
         C         C         1.0       0.5214322594866657  0.5153659987618437  0.8709584038350551 1.0000   
         H         H         1.0       0.6082558184232612  0.5755813879730525  0.866953723957125  1.0000   
         H         H         1.0       0.6075585653782379  0.529605474051902   0.9002500922715341 1.0000   
         H         H         1.0       0.4978649433637777  0.4694519220742999  0.8936825984243648 1.0000   
         H         H         1.0       0.4973875613221298  0.5115968993611472  0.8621365648148568 1.0000   
         C         C         1.0       0.49117593231805967           0.4532047592942732 0.9529691419270219 1.0000   
         C         C         1.0       0.5153690887439267  0.44571046809144504           0.9409858178980699 1.0000   
         C         C         1.0       0.5079943447549473  0.4128731160055531  0.9440073158422789 1.0000   
         C         C         1.0       0.475918822149127   0.38673156248448204           0.9520426651048105 1.0000   
         C         C         1.0       0.4503956553304433  0.393741464853762   0.962739881998194  1.0000   
         C         C         1.0       0.4589760834104839  0.42771584603315976           0.9639963221032973 1.0000   
         C         C         1.0       0.5531972663919361  0.4747175033159406  0.9281021181923357 1.0000   
         C         C         1.0       0.5725772041966587  0.49825618218774104           0.9578889378236987 1.0000   
         C         C         1.0       0.5789961278249657  0.4855655413870682  0.9838908797943937 1.0000   
         C         C         1.0       0.592565370777869   0.5035926927905919  0.010909004130118527         1.0000   
         C         C         1.0       0.5989540286121657  0.5380311449044672  0.012869937466617909         1.0000   
         C         C         1.0       0.5892170125724908  0.5502162981399578  0.98856981384389   1.0000   
         C         C         1.0       0.5763258972504909  0.5303747290211739  0.9618498995114806 1.0000   
         C         C         1.0       0.5656711320853399  0.4403960471734744  0.8871210084487349 1.0000   
         C         C         1.0       0.5837921289164036  0.4267845032137938  0.8734493998476933 1.0000   
         C         C         1.0       0.6139429109851792  0.4308925743987934  0.8867422744290571 1.0000   
         C         C         1.0       0.6261400489303083  0.4535682368667402  0.9120000291703093 1.0000   
         C         C         1.0       0.608983565792171   0.4689252439366149  0.923618360751192  1.0000   
         C         C         1.0       0.5755356949041376  0.45944869027211427           0.9135111427633493 1.0000   
         C         C         1.0       0.6398695270280759  0.41966605316619154           0.8735541736674639 1.0000   
         C         C         1.0       0.5969010870345868  0.36230233584769067           0.7862080535888324 1.0000   
         C         C         1.0       0.6292753210258029  0.3924240139080224  0.7861779623021821 1.0000   
         C         C         1.0       0.64190582178229    0.41095716188553344           0.812667932509674  1.0000   
         C         C         1.0       0.6230481044038945  0.400366126598467   0.8408737885170742 1.0000   
         C         C         1.0       0.5922387107063207  0.367664048348593   0.8399067986571503 1.0000   
         C         C         1.0       0.5801162656844134  0.3489062422032202  0.8133298477160472 1.0000   
         C         C         1.0       0.6476154505627402  0.395150789873898   0.8944094428776354 1.0000   
         C         C         1.0       0.6503415078292817  0.399071838893339   0.9260792538964274 1.0000   
         C         C         1.0       0.663612158708397   0.3834830082324209  0.9437315856828288 1.0000   
         C         C         1.0       0.6726061893267684  0.36212622241702735           0.9310101466953618 1.0000   
         C         C         1.0       0.6696952257597949  0.3569806172490264  0.8996248875843453 1.0000   
         C         C         1.0       0.656756342229354   0.37281672544712946           0.8816465666262872 1.0000   
         C         C         1.0       0.7083060920851182  0.4663220878983356  0.8799804802739547 1.0000   
         C         C         1.0       0.735015528495335   0.4997854856680299  0.879504747543121  1.0000   
         C         C         1.0       0.7325687924529478  0.5242645431085969  0.8630151611419037 1.0000   
         C         C         1.0       0.7006651580955995  0.5143750706830925  0.8491364972793027 1.0000   
         C         C         1.0       0.6741915498521485  0.4806463816153152  0.8494734122684247 1.0000   
         C         C         1.0       0.675968772347744   0.4565951538719937  0.8665721794994635 1.0000   
         H         H         1.0       0.49938071026739933           0.4811003108953523 0.9515200104457824 1.0000   
         H         H         1.0       0.5263343131114617  0.4051935080990799  0.940314653900286  1.0000   
         H         H         1.0       0.4732123194730569  0.361468419756919   0.9583868228963075 1.0000   
         H         H         1.0       0.4428701556801059  0.435791428892881   0.9763822288118911 1.0000   
         H         H         1.0       0.5768100695629709  0.46129169941819986           0.983828660663464  1.0000   
         H         H         1.0       0.59776260009235    0.49206134598647266           0.029867855985600045         1.0000   
         H         H         1.0       0.5906917949456514  0.5754776897860466  0.9907042230119971 1.0000   
         H         H         1.0       0.5683364800832034  0.5410663744859147  0.9454170736633662 1.0000   
         H         H         1.0       0.5390416754351283  0.4311568982101235  0.8784597361552311 1.0000   
         H         H         1.0       0.5713813040639877  0.41342753219757244           0.8524805642616087 1.0000   
         H         H         1.0       0.6522134619839818  0.46553939568915376           0.9214429569472427 1.0000   
         H         H         1.0       0.6211428871876237  0.4886717878864437  0.9414911850898188 1.0000   
         H         H         1.0       0.6424102622973036  0.39992233985485015           0.7648609252661391 1.0000   
         H         H         1.0       0.6668340655215568  0.4337086374152692  0.8121449983333475 1.0000   
         H         H         1.0       0.5794381094419209  0.35806128958486777           0.8617225123857707 1.0000   
         H         H         1.0       0.5584617769645375  0.32222958752259534           0.814100884081201  1.0000   
         H         H         1.0       0.6479317711767539  0.4180976099760069  0.9375371756583893 1.0000   
         H         H         1.0       0.664143745338247   0.3867054256710176  0.9683977478647268 1.0000   
         H         H         1.0       0.6787764768320076  0.34217059153961177           0.8902566864062492 1.0000   
         H         H         1.0       0.6585700617258647  0.36795173352999583           0.8573550257004403 1.0000   
         H         H         1.0       0.715118989352201   0.44863894850313324           0.8910525962328911 1.0000   
         H         H         1.0       0.760240422302189   0.5053749658518591  0.8902288498619323 1.0000   
         H         H         1.0       0.6981081570150506  0.5323448005757895  0.8370289431789144 1.0000   
         H         H         1.0       0.6513859513783455  0.47270013007846146           0.8380815260151078 1.0000   
         C         C         1.0       0.5226419736702878  0.07932758564273919           0.8539333842751933 1.0000   
         C         C         1.0       0.512026964769497   0.10302897534713643           0.8541665889443563 1.0000   
         C         C         1.0       0.5364663539985047  0.1386594710672504  0.8547201629374132 1.0000   
         C         C         1.0       0.5726725907979078  0.15141522429819482           0.8531096881959436 1.0000   
         C         C         1.0       0.5826076390491122  0.12650980028190312           0.8499507647928827 1.0000   
         C         C         1.0       0.5589006163729076  0.091258500730577   0.8524435286524331 1.0000   
         H         H         1.0       0.48630349425293123           0.0949935940855467 0.84877863155629   1.0000   
         H         H         1.0       0.5270027164860418  0.15573159740969075           0.853239730276807  1.0000   
         H         H         1.0       0.6102350530523238  0.13436642118010034           0.8464609746667632 1.0000   
         H         H         1.0       0.5672025070468852  0.0738535358705246  0.8468990665286834 1.0000   
         C         C         1.0       0.6471779654781645  0.18741658151340268           0.8892074062973918 1.0000   
         C         C         1.0       0.6382236325467532  0.2062920318824292  0.871484697701765  1.0000   
         C         C         1.0       0.6639074413389856  0.24175587558227257           0.8676660999714889 1.0000   
         C         C         1.0       0.6951513235135522  0.2559038238848439  0.8821828172753948 1.0000   
         C         C         1.0       0.7018837232778291  0.2368821469951106  0.9019975037055181 1.0000   
         C         C         1.0       0.6780342637749324  0.20210087480154348           0.9044954039480189 1.0000   
         C         C         1.0       0.6024273826270272  0.19148457750400186           0.851122164205823  1.0000   
         C         C         1.0       0.5874307369339103  0.21343859951887478           0.8661636981937224 1.0000   
         C         C         1.0       0.5902643329122894  0.24318527698082604           0.85424535931773   1.0000   
         C         C         1.0       0.5818307989163292  0.2629604598973434  0.8714729232482847 1.0000   
         C         C         1.0       0.5679168895284549  0.25296041491538523           0.9005017506038486 1.0000   
         C         C         1.0       0.5640974207653994  0.22321365127333703           0.9108652820717198 1.0000   
         C         C         1.0       0.5725142825393725  0.20287151919454696           0.8937068945364814 1.0000   
         C         C         1.0       0.6396127672403397  0.19796545479316968           0.8049133342467497 1.0000   
         C         C         1.0       0.649778151753335   0.20631950469779323           0.7752743646522267 1.0000   
         C         C         1.0       0.6316390636336111  0.21521401519606365           0.7553727150897493 1.0000   
         C         C         1.0       0.5986439255797634  0.20944390795114232           0.7657534473755472 1.0000   
         C         C         1.0       0.5895587033739296  0.20200378850412934           0.795785771045236  1.0000   
         C         C         1.0       0.6100148099913948  0.1969135987522124  0.8165133076191406 1.0000   
         C         C         1.0       0.6541468294902886  0.24192201293078314           0.7276256514325112 1.0000   
         C         C         1.0       0.7693008300938963  0.27952106833566975           0.7382758530144113 1.0000   
         C         C         1.0       0.7463587118494298  0.24633976299907956           0.7266858455069461 1.0000   
         C         C         1.0       0.7118177006182517  0.23655602933916203           0.7228325785671671 1.0000   
         C         C         1.0       0.6973749018870538  0.2583354610325914  0.7310179091157406 1.0000   
         C         C         1.0       0.72084795499124    0.28965104634563804           0.7419266986000614 1.0000   
         C         C         1.0       0.7548603810876252  0.29999412037459783           0.7458325547887534 1.0000   
         C         C         1.0       0.6422370463342838  0.2706200116206055  0.7271247319720395 1.0000   
         C         C         1.0       0.6208670380207767  0.271385270830113   0.7054591208672475 1.0000   
         C         C         1.0       0.6064990733145968  0.2914895875372357  0.7079389230280684 1.0000   
         C         C         1.0       0.6125230979956553  0.3126944270673524  0.7325795488521039 1.0000   
         C         C         1.0       0.6336258534395508  0.31201447553863    0.7548206706433683 1.0000   
         C         C         1.0       0.6490366683733697  0.2921763012582355  0.7522143433801998 1.0000   
         C         C         1.0       0.6691264752158553  0.24835151971567404           0.6710923795849468 1.0000   
         C         C         1.0       0.6628865689056831  0.23475906515365286           0.6412617547817675 1.0000   
         C         C         1.0       0.6370040724182968  0.19880469609818258           0.6357340997845626 1.0000   
         C         C         1.0       0.6171067292111477  0.1788803827286298  0.6602645542741232 1.0000   
         C         C         1.0       0.6221880605958545  0.1928409607409867  0.6883286679475543 1.0000   
         C         C         1.0       0.6496322716896791  0.22613228703534236           0.6936391780801507 1.0000   
         H         H         1.0       0.6268331222957297  0.16134704680115017           0.8933009496710401 1.0000   
         H         H         1.0       0.6570584262211908  0.25852646494476894           0.8563382446465355 1.0000   
         H         H         1.0       0.7157765659468487  0.2831960002176801  0.8804378344358368 1.0000   
         H         H         1.0       0.6857179387701257  0.18793981948241564           0.9185725885192585 1.0000   
         H         H         1.0       0.6046447933930184  0.2547648261551841  0.8321374596843186 1.0000   
         H         H         1.0       0.5869383576755296  0.2864792219361724  0.8612849445180281 1.0000   
         H         H         1.0       0.5536316218873611  0.21635158962579643           0.9332858496711819 1.0000   
         H         H         1.0       0.5684171110928993  0.18012066448554956           0.9039315942114617 1.0000   
         H         H         1.0       0.6567188728136871  0.19273794325789073           0.8189280179615355 1.0000   
         H         H         1.0       0.6751077602767142  0.21042805047062274           0.7728338848611526 1.0000   
         H         H         1.0       0.5829178418846461  0.21459213822971712           0.7516854294763163 1.0000   
         H         H         1.0       0.5647321515251655  0.19934923170434976           0.802290171185001  1.0000   
         H         H         1.0       0.7551607278359966  0.22956013313855853           0.7249276851135615 1.0000   
         H         H         1.0       0.6920327821381435  0.20918832635787094           0.7196005440666144 1.0000   
         H         H         1.0       0.7114824331539485  0.30652283583086776           0.7498909374568746 1.0000   
         H         H         1.0       0.7704533106719211  0.3251312573865511  0.7568496256706323 1.0000   
         H         H         1.0       0.6136685328339557  0.25167640686216797           0.6877418778563712 1.0000   
         H         H         1.0       0.5941887118831402  0.2935780000069783  0.6875519964046537 1.0000   
         H         H         1.0       0.6404322279227627  0.32908394149730985           0.7733131455181851 1.0000   
         H         H         1.0       0.6627362443588505  0.29146541710565294           0.7723188171482369 1.0000   
         H         H         1.0       0.6909385618678799  0.27603756391316053           0.6744148283135754 1.0000   
         H         H         1.0       0.6781277338106813  0.25004898207098136           0.6233817596461212 1.0000   
         H         H         1.0       0.5967748752369053  0.1535010682805501  0.6585440776919712 1.0000   
         H         H         1.0       0.606003591767584   0.17536865722347394           0.7061222309189797 1.0000   
         C         C         1.0       0.7944840458599514  0.2627618977846135  0.9220117748889953 1.0000   
         C         C         1.0       0.7991413346906218  0.24564339156127624           0.9457535450034873 1.0000   
         C         C         1.0       0.8241825027395574  0.2666526953308241  0.9666724623248322 1.0000   
         C         C         1.0       0.8415065110543206  0.3016664837926223  0.9659809723498153 1.0000   
         C         C         1.0       0.8413691496164031  0.31641316249169005           0.9384286700664969 1.0000   
         C         C         1.0       0.8188608152862863  0.29732124941710514           0.9158145238359701 1.0000   
         H         H         1.0       0.7857856313668794  0.2176350834730932  0.9474663924208889 1.0000   
         H         H         1.0       0.828995999517561   0.25496880219872003           0.9859504184331963 1.0000   
         H         H         1.0       0.862069228665294   0.34235003754557153           0.9344147591356129 1.0000   
         H         H         1.0       0.8171161808612992  0.3095304083997607  0.8948402196471297 1.0000   
         C         C         1.0       0.9134734090321313  0.3918538755720918  0.9997141299425716 1.0000   
         C         C         1.0       0.8802398460052745  0.3659958239409207  0.9919402091460626 1.0000   
         C         C         1.0       0.8549998824990996  0.3746738947127965  0.9920849041116798 1.0000   
         C         C         1.0       0.8621115496312909  0.40766497334503177           0.00029050786265272244       1.0000   
         C         C         1.0       0.8951928216572398  0.4315412781172697  0.009478327923659657         1.0000   
         C         C         1.0       0.9215669103420319  0.4236187718432424  0.009075971588551113         1.0000   
         C         C         1.0       0.8670685711203953  0.3255296897218739  0.9920207513680475 1.0000   
         C         C         1.0       0.8992378434817755  0.31893218188727673           0.9857711215585832 1.0000   
         C         C         1.0       0.9036412114998513  0.2966554731310189  0.004193589609531978         1.0000   
         C         C         1.0       0.9317525924421319  0.29295324646449505           0.9998537667653985 1.0000   
         C         C         1.0       0.9582536276679708  0.3128155249147845  0.9789967264592929 1.0000   
         C         C         1.0       0.9520925753723471  0.3311485147881012  0.9582461490217618 1.0000   
         C         C         1.0       0.9236488711284154  0.33583502916778774           0.9606347696221316 1.0000   
         C         C         1.0       0.8153884740947216  0.302590967797317   0.02896895966041678          1.0000   
         C         C         1.0       0.8025225477475604  0.3034403935301223  0.05685269190499263          1.0000   
         C         C         1.0       0.8230219938303471  0.31732160095572465           0.08284031075793688          1.0000   
         C         C         1.0       0.8579480690159159  0.328386541953119   0.07799724675336327          1.0000   
         C         C         1.0       0.8706291341527216  0.32618167265881115           0.05099255836914507          1.0000   
         C         C         1.0       0.8494787608112334  0.31483900319454317           0.025060264534414012         1.0000   
         C         C         1.0       0.808779146051291   0.3176910584896932  0.11645288236070556          1.0000   
         C         C         1.0       0.8405068408432892  0.41826435634603853           0.15341976948657107          1.0000   
         C         C         1.0       0.8242222623914148  0.3892442887430196  0.17286850051108646          1.0000   
         C         C         1.0       0.8210972076625139  0.3595099141749252  0.16323004465868077          1.0000   
         C         C         1.0       0.8268447539759669  0.3540456046626106  0.13374959684102797          1.0000   
         C         C         1.0       0.842158170416118   0.3832843019014754  0.1150000380599765 1.0000   
         C         C         1.0       0.8527334115955602  0.4158291777941022  0.12556246112905808          1.0000   
         C         C         1.0       0.8166263899936391  0.29006944597748135           0.1318416547720323 1.0000   
         C         C         1.0       0.844426963743203   0.29935700564729156           0.1526499900884246 1.0000   
         C         C         1.0       0.8511721321577846  0.2747037748874577  0.16230860963030946          1.0000   
         C         C         1.0       0.8309093572772791  0.24111706320735793           0.1548393141136388 1.0000   
         C         C         1.0       0.8031506748214556  0.23141376522985854           0.13541004122038294          1.0000   
         C         C         1.0       0.7958728465660583  0.25471868215940113           0.12373774059753058          1.0000   
         C         C         1.0       0.7465228605274616  0.29160924623198997           0.13459255577480161          1.0000   
         C         C         1.0       0.7137728565499403  0.28897242847872423           0.13653978083551704          1.0000   
         C         C         1.0       0.706669902389318   0.30837555630041236           0.11818579563517234          1.0000   
         C         C         1.0       0.7297236692196759  0.32925956306445886           0.09546893938334246          1.0000   
         C         C         1.0       0.7631316392078222  0.3328055284730654  0.09593020552868033          1.0000   
         C         C         1.0       0.7698760753569952  0.31219674868956954           0.1139149574762853 1.0000   
         H         H         1.0       0.9327878414623344  0.3854653231626878  0.004678000967496487         1.0000   
         H         H         1.0       0.8285657762515904  0.3540454673688727  0.9879709612219135 1.0000   
         H         H         1.0       0.8414879873828183  0.41481659571166296           0.0007995158340929898        1.0000   
         H         H         1.0       0.9470222685255519  0.4419982102459586  0.01882760329822375          1.0000   
         H         H         1.0       0.8888143736222868  0.28421880654494447           0.02434162873638379          1.0000   
         H         H         1.0       0.9348858338573405  0.2752950940309421  0.013655002519250116         1.0000   
         H         H         1.0       0.9686811714682558  0.3394784297584732  0.9388523935622062 1.0000   
         H         H         1.0       0.9178178549795348  0.3494471707334239  0.9450077155349101 1.0000   
         H         H         1.0       0.7989671519325016  0.29321692088003665           0.010027753442533704         1.0000   
         H         H         1.0       0.7742532428474794  0.290023968059426   0.055783858074765096         1.0000   
         H         H         1.0       0.8746649392460543  0.3397280033447662  0.09731584080139855          1.0000   
         H         H         1.0       0.8971333309059448  0.3330892883735386  0.04836205828979693          1.0000   
         H         H         1.0       0.8180260036030983  0.3923426664959828  0.19543139681381538          1.0000   
         H         H         1.0       0.8083064418652709  0.3378364884089827  0.17903932473104814          1.0000   
         H         H         1.0       0.845443073814658   0.38307972329798795           0.09067517044170732          1.0000   
         H         H         1.0       0.8650245250184538  0.43836856033183    0.10984608635296254          1.0000   
         H         H         1.0       0.8584295415232034  0.32360454322673404           0.1648774186464452 1.0000   
         H         H         1.0       0.8727230061143207  0.283241987888896   0.17900350378303737          1.0000   
         H         H         1.0       0.7865090016738949  0.204769684367873   0.1299309641959874 1.0000   
         H         H         1.0       0.7735257956592904  0.2433656630613095  0.11120225227983517          1.0000   
         H         H         1.0       0.7531049013584767  0.2763226404378574  0.1488046698828017 1.0000   
         H         H         1.0       0.6934010231483755  0.2685657450690882  0.15050510208706974          1.0000   
         H         H         1.0       0.7262161823394356  0.3483857980392386  0.08408280095218673          1.0000   
         H         H         1.0       0.7839911645485879  0.3516281941208301  0.08026486649820717          1.0000   
         C         C         1.0       0.00888974636873659           0.5541750432613658 0.848647501047193  1.0000   
         C         C         1.0       0.999308114381614   0.5368126365760985  0.8755899966141834 1.0000   
         C         C         1.0       0.9667689650819844  0.5256412416772542  0.8859885837183905 1.0000   
         C         C         1.0       0.9456427999801434  0.5344876524240103  0.8723405775636245 1.0000   
         C         C         1.0       0.9586303795106904  0.5576348443370669  0.8484714588337813 1.0000   
         C         C         1.0       0.9890473028958663  0.565076447747531   0.8353690669591256 1.0000   
         H         H         1.0       0.01672584336450581           0.5316127626226865 0.8886560848171462 1.0000   
         H         H         1.0       0.9580456773215099  0.5085500006242027  0.9051540634137412 1.0000   
         H         H         1.0       0.9416487954771204  0.5649084451439876  0.8377939367201849 1.0000   
         H         H         1.0       0.9958273423733974  0.5804717721239522  0.8165894390723353 1.0000   
         C         C         1.0       0.9153493433885603  0.5797259807292884  0.8939438629718607 1.0000   
         C         C         1.0       0.8936235464186053  0.5462911445266481  0.8841860196955211 1.0000   
         C         C         1.0       0.8582895613684645  0.5343230747985982  0.882049241211796  1.0000   
         C         C         1.0       0.8448181046037838  0.5537178001792207  0.8916975318441526 1.0000   
         C         C         1.0       0.8659392364451053  0.5857080440616842  0.9039045324342512 1.0000   
         C         C         1.0       0.9008354430624732  0.5981468326999007  0.902785988496143  1.0000   
         C         C         1.0       0.9063286060857156  0.519342065315576   0.8838813120397586 1.0000   
         C         C         1.0       0.8992342754405607  0.5110436554143905  0.9192825799606975 1.0000   
         C         C         1.0       0.865827392599903   0.4845867794499754  0.9296643409454919 1.0000   
         C         C         1.0       0.8618533309428122  0.4764414678031277  0.9599029847476087 1.0000   
         C         C         1.0       0.8874028447777231  0.49592422402615677           0.981158672551269  1.0000   
         C         C         1.0       0.9202743356862947  0.5202208713679408  0.9711641744134847 1.0000   
         C         C         1.0       0.9257560905322697  0.5294387544473207  0.9413962400425403 1.0000   
         C         C         1.0       0.8657464238200188  0.4840477386608658  0.8381218279800895 1.0000   
         C         C         1.0       0.8411785116804503  0.45339138670149454           0.8264021789281146 1.0000   
         C         C         1.0       0.8371754895431569  0.423009655915039   0.837796229075198  1.0000   
         C         C         1.0       0.8600782935090517  0.4244707437144465  0.8599773938327083 1.0000   
         C         C         1.0       0.8842888289860033  0.45598096584174785           0.8722512033329005 1.0000   
         C         C         1.0       0.8861160583501654  0.4856281316413475  0.8628458432281982 1.0000   
         C         C         1.0       0.8024438158250106  0.38722157229344295           0.8315754537677776 1.0000   
         C         C         1.0       0.7567945144576281  0.38201024884654416           0.9207753775663903 1.0000   
         C         C         1.0       0.7562421195834805  0.40339414054445283           0.8995192485765444 1.0000   
         C         C         1.0       0.7701319910080758  0.40417066334359303           0.8707995304890591 1.0000   
         C         C         1.0       0.7823312967211266  0.3816602150720834  0.8632225587241579 1.0000   
         C         C         1.0       0.7838423527598564  0.3617703903792726  0.8871116464355195 1.0000   
         C         C         1.0       0.7721336053825729  0.3620863007735642  0.9150406266018448 1.0000   
         C         C         1.0       0.8081749209627607  0.357710448108029   0.821525019598556  1.0000   
         C         C         1.0       0.8395767019666949  0.3654873743523151  0.8077162985355939 1.0000   
         C         C         1.0       0.8438898820895966  0.34169380876683775           0.7935289112799735 1.0000   
         C         C         1.0       0.8176046379140305  0.3077743609848704  0.7951921632556379 1.0000   
         C         C         1.0       0.7872262703626267  0.2985737944199514  0.8122430674769507 1.0000   
         C         C         1.0       0.7826008992952393  0.32302282599442667           0.8249093269128835 1.0000   
         C         C         1.0       0.7418497237413807  0.3677014060076398  0.8047096940259721 1.0000   
         C         C         1.0       0.7232746190762822  0.3684699254593517  0.7801659913364564 1.0000   
         C         C         1.0       0.7393922074084794  0.3834652809072049  0.7528685988053629 1.0000   
         C         C         1.0       0.7761135268422019  0.3991274957835585  0.751387619847392  1.0000   
         C         C         1.0       0.7944948093819713  0.39757226473716134           0.7756441977433389 1.0000   
         C         C         1.0       0.7779831809910386  0.3849517213915507  0.8042975461057548 1.0000   
         H         H         1.0       0.9444688916032702  0.5931188664563715  0.8967212359765036 1.0000   
         H         H         1.0       0.8401857782676643  0.5097001696629886  0.8727061176951201 1.0000   
         H         H         1.0       0.8173099338943638  0.5439721192730556  0.886497260902481  1.0000   
         H         H         1.0       0.917935633245569   0.6238418701611118  0.9086243867970142 1.0000   
         H         H         1.0       0.8445202751873507  0.4683536045832897  0.9148311493587254 1.0000   
         H         H         1.0       0.8358930523888513  0.4570367381012695  0.9696914285732786 1.0000   
         H         H         1.0       0.9421547743781798  0.5355101274690837  0.9855885845223241 1.0000   
         H         H         1.0       0.9520750778466064  0.5491994210582659  0.9340975796815955 1.0000   
         H         H         1.0       0.866484423163658   0.5057762812391944  0.8275831781833094 1.0000   
         H         H         1.0       0.8226348005255475  0.4524189011090968  0.8117704575297555 1.0000   
         H         H         1.0       0.8573428038031765  0.4004624770178202  0.8664242781643924 1.0000   
         H         H         1.0       0.8998908873331499  0.45395270127223974           0.8891328813094821 1.0000   
         H         H         1.0       0.7472569491709115  0.4207443710990296  0.9047503285719111 1.0000   
         H         H         1.0       0.7742655483224357  0.4249513769451575  0.8557589549425955 1.0000   
         H         H         1.0       0.7980475200229687  0.3491012370792203  0.8826609383507067 1.0000   
         H         H         1.0       0.7725728536830534  0.3463106530142686  0.9339390615961903 1.0000   
         H         H         1.0       0.863060925298286   0.39234858337417344           0.8068988104167254 1.0000   
         H         H         1.0       0.8675210870786351  0.3473434837230593  0.7814681960925646 1.0000   
         H         H         1.0       0.7697166748416236  0.2708046916775335  0.8171174337999203 1.0000   
         H         H         1.0       0.7580214464383689  0.31473941335379974           0.8348214289539722 1.0000   
         H         H         1.0       0.7270977206156156  0.3539901491401887  0.8243968093745219 1.0000   
         H         H         1.0       0.6956105082506691  0.3568641923927418  0.7813619853847646 1.0000   
         H         H         1.0       0.7910853855149004  0.40996531327231966           0.7297825931787331 1.0000   
         H         H         1.0       0.8225999181221554  0.40816908846852595           0.7727499259495901 1.0000   
         C         C         1.0       0.8306128514324336  0.6006878733058828  0.9787808932587826 1.0000   
         C         C         1.0       0.8505819823546258  0.6308616835242759  0.9930024511809213 1.0000   
         C         C         1.0       0.8376573540252485  0.6432940027744412  0.014180089230712678         1.0000   
         C         C         1.0       0.8015309395421392  0.6266435766307584  0.019374563743174145         1.0000   
         C         C         1.0       0.7800772639156416  0.5957472227181976  0.003357882676241042         1.0000   
         C         C         1.0       0.7953459140286767  0.5845040865622859  0.9822749354513243 1.0000   
         H         H         1.0       0.8784738886570872  0.6443134572810576  0.9897371159676707 1.0000   
         H         H         1.0       0.8552902019613269  0.661353227508739   0.030982799583798334         1.0000   
         H         H         1.0       0.7519330868040515  0.581295903270178   0.008165390140678408         1.0000   
         H         H         1.0       0.7781961887175511  0.5615501998153372  0.9694585043262606 1.0000   
         C         C         1.0       0.7314540206526468  0.6279213067665089  0.017673994203171617         1.0000   
         C         C         1.0       0.7473099598558255  0.629571057919985   0.045133411586813894         1.0000   
         C         C         1.0       0.7244327956974856  0.6214971390581973  0.07013061282376751          1.0000   
         C         C         1.0       0.6908072734406878  0.6149347573615619  0.06805916168794235          1.0000   
         C         C         1.0       0.6757265372064801  0.6108225559614701  0.0403137908863207 1.0000   
         C         C         1.0       0.6971353727167972  0.6208031037019505  0.015285105281929168         1.0000   
         C         C         1.0       0.7867968274793609  0.6394012198690034  0.04620880130049792          1.0000   
         C         C         1.0       0.8046177623595206  0.6800188188087131  0.0509286711059247 1.0000   
         C         C         1.0       0.80943715755019    0.6961148790719816  0.0779626723837321 1.0000   
         C         C         1.0       0.8341159567383722  0.7312199923419599  0.080684752706397  1.0000   
         C         C         1.0       0.8504927305983369  0.7495510987402781  0.05444184421837309          1.0000   
         C         C         1.0       0.842138568063019   0.7344786421955299  0.027099509157078927         1.0000   
         C         C         1.0       0.8186726348965996  0.7004567961153884  0.026092361635987604         1.0000   
         C         C         1.0       0.7666626425807969  0.5854330007042974  0.08031635198838336          1.0000   
         C         C         1.0       0.7676816804473888  0.5705916899307699  0.10670309784607723          1.0000   
         C         C         1.0       0.797301684398162   0.5872088498903221  0.12544856618811204          1.0000   
         C         C         1.0       0.8259616033110998  0.6160988560168269  0.11305709920586528          1.0000   
         C         C         1.0       0.8239875680577341  0.6318237907814983  0.08840605949339389          1.0000   
         C         C         1.0       0.7919761470443368  0.6189206889538671  0.07331988364406646          1.0000   
         C         C         1.0       0.7948246977791892  0.573232232270558   0.15953007573050096          1.0000   
         C         C         1.0       0.693463598564122   0.5495271606461516  0.19636489296666787          1.0000   
         C         C         1.0       0.7067358626562522  0.5286974924341039  0.20383234387684832          1.0000   
         C         C         1.0       0.7394142113438541  0.5377693298831675  0.1935406055235616 1.0000   
         C         C         1.0       0.7576627775405248  0.5649601643001743  0.17420128848156163          1.0000   
         C         C         1.0       0.7453059250065501  0.5869604202344264  0.1685905595765961 1.0000   
         C         C         1.0       0.712465822012003   0.5759894940639355  0.1777239147353661 1.0000   
         C         C         1.0       0.822740866954512   0.5974147387671904  0.1839095351803124 1.0000   
         C         C         1.0       0.841576320797513   0.6322015761281546  0.18211044971265153          1.0000   
         C         C         1.0       0.8717739218560533  0.6496226519110605  0.19855295596790612          1.0000   
         C         C         1.0       0.881758274656257   0.632729997914423   0.21944019071100446          1.0000   
         C         C         1.0       0.8575035984464886  0.5994252586077647  0.22570302085193691          1.0000   
         C         C         1.0       0.8275679495120208  0.581169902658565   0.2087935485582952 1.0000   
         C         C         1.0       0.8334863633179285  0.54703055784004    0.14425037488480966          1.0000   
         C         C         1.0       0.8373226823012367  0.5185955596412891  0.13960815718144165          1.0000   
         C         C         1.0       0.8097160182207201  0.48608356475485043           0.14151246423063396          1.0000   
         C         C         1.0       0.777296551012549   0.48140913466988267           0.14478555241828792          1.0000   
         C         C         1.0       0.7718484910252144  0.5085123703524385  0.14764601159332422          1.0000   
         C         C         1.0       0.8006130919756934  0.5427159856130058  0.1509077727355804 1.0000   
         H         H         1.0       0.7445039824563555  0.6325393310733284  0.9961208908721151 1.0000   
         H         H         1.0       0.7365746665683014  0.6264208800139361  0.09141776204694874          1.0000   
         H         H         1.0       0.6761465315646228  0.6130494052466244  0.09003952475557077          1.0000   
         H         H         1.0       0.6871356385971421  0.6209082898264293  0.9917477952747576 1.0000   
         H         H         1.0       0.7984735235380223  0.6814118507918576  0.0984264483927467 1.0000   
         H         H         1.0       0.8358448021113454  0.7417671337367177  0.10213815356232923          1.0000   
         H         H         1.0       0.8515118562443732  0.7478249531055752  0.006854171122761432         1.0000   
         H         H         1.0       0.8167675911820266  0.69005883925095    0.0036823036742759108        1.0000   
         H         H         1.0       0.7425620345881419  0.5703734467444045  0.06620053245848456          1.0000   
         H         H         1.0       0.7460788279677524  0.5435494446890156  0.11236463592704857          1.0000   
         H         H         1.0       0.8530599035511586  0.6272036349172068  0.12052524550218359          1.0000   
         H         H         1.0       0.8457265155811561  0.6575151333136414  0.08145636782108527          1.0000   
         H         H         1.0       0.6932374472791277  0.5064063802572389  0.22000876124483004          1.0000   
         H         H         1.0       0.746821519233972   0.5200987743486558  0.19853588647055104          1.0000   
         H         H         1.0       0.7575575075546465  0.6082381972594524  0.15473949193225897          1.0000   
         H         H         1.0       0.7029421031104854  0.5938262140546182  0.17241080344059848          1.0000   
         H         H         1.0       0.8337168947627962  0.6455364288122107  0.16725918010267996          1.0000   
         H         H         1.0       0.8881038190554414  0.6766121930345439  0.19333260726256135          1.0000   
         H         H         1.0       0.860910432182848   0.5874375111723742  0.24651882329498892          1.0000   
         H         H         1.0       0.8107331469988879  0.5533932702489183  0.21343629736780803          1.0000   
         H         H         1.0       0.8564167310726664  0.5711462506598858  0.14302479317363193          1.0000   
         H         H         1.0       0.8618923139973859  0.52137756238732    0.13471291374371977          1.0000   
         H         H         1.0       0.7531576997595153  0.45652321977731014           0.1433990743421482 1.0000   
         H         H         1.0       0.7441757305790897  0.500864581887439   0.14987557565887039          1.0000   
         C         C         1.0       0.37639329771462265           0.6513496942545748 0.7278092092881615 1.0000   
         C         C         1.0       0.3930555278942784  0.6362543883218124  0.7161658945117373 1.0000   
         C         C         1.0       0.373015187147053   0.604061579927954   0.7036076489112377 1.0000   
         C         C         1.0       0.33611540507237847           0.5853735040371715 0.7045554517953466 1.0000   
         C         C         1.0       0.32110125721095845           0.6030496666567193 0.7167941808489496 1.0000   
         C         C         1.0       0.34164364310073186           0.6357791848084109 0.7271074230112243 1.0000   
         H         H         1.0       0.42100475822811007           0.6513449061592309 0.7133760692014363 1.0000   
         H         H         1.0       0.3876802649191965  0.5936662258977287  0.6935177845296658 1.0000   
         H         H         1.0       0.2938698862939254  0.5935667287987673  0.7137900325473711 1.0000   
         H         H         1.0       0.32934346537289283           0.650417790654509  0.737626162009589  1.0000   
         C         C         1.0       0.26496402617970977           0.5233785841452552 0.726196338913509  1.0000   
         C         C         1.0       0.272983293299185   0.5295017764740042  0.6958144467517969 1.0000   
         C         C         1.0       0.24501978327751486           0.5140723549168065 0.6761712569829775 1.0000   
         C         C         1.0       0.210963658672198   0.49246485304838683           0.6861344905463341 1.0000   
         C         C         1.0       0.20434985764137983           0.4847995511108653 0.7158690483361656 1.0000   
         C         C         1.0       0.2320023246108694  0.4976367942951314  0.7354135484113745 1.0000   
         C         C         1.0       0.31283603103757923           0.5508911667881503 0.6852650516867267 1.0000   
         C         C         1.0       0.3212697284684641  0.5212576993509681  0.6904162291990192 1.0000   
         C         C         1.0       0.3098210057017321  0.4943645968331449  0.6705792430796464 1.0000   
         C         C         1.0       0.31431682087247265           0.46712481333800604          0.6754032895511566 1.0000   
         C         C         1.0       0.33337124309625077           0.4673277263958901 0.6999848835124467 1.0000   
         C         C         1.0       0.3449172729741396  0.493410469347397   0.7207585221242905 1.0000   
         C         C         1.0       0.33670085823893253           0.5192690240998408 0.7175004620894065 1.0000   
         C         C         1.0       0.30880278532003047           0.5891260780375208 0.6425259988032722 1.0000   
         C         C         1.0       0.3228393943031739  0.6085380345600119  0.6173098258859459 1.0000   
         C         C         1.0       0.346679842740991   0.6063638437746792  0.5976167697547703 1.0000   
         C         C         1.0       0.3573072227788154  0.5845047211513553  0.6085167515193044 1.0000   
         C         C         1.0       0.34480931264578235           0.5663179406481552 0.6355383954465336 1.0000   
         C         C         1.0       0.3192603197550514  0.5671524193705738  0.6529149793585252 1.0000   
         C         C         1.0       0.36403586252152814           0.6309042391194176 0.5676711861245403 1.0000   
         C         C         1.0       0.31560696626603685           0.6728224761576661 0.5118839283079969 1.0000   
         C         C         1.0       0.3515438478210736  0.6872371766158848  0.5108141679419131 1.0000   
         C         C         1.0       0.3643351652028542  0.6735179287719975  0.529998313583931  1.0000   
         C         C         1.0       0.3449898621519988  0.6479399402824176  0.5509163477486653 1.0000   
         C         C         1.0       0.308658469166653   0.6318263417273562  0.548080373198739  1.0000   
         C         C         1.0       0.2940624052252428  0.6452340059045667  0.5294236817672201 1.0000   
         C         C         1.0       0.3629876091756546  0.6048542603207212  0.5419559089934862 1.0000   
         C         C         1.0       0.39003394543886205           0.6140486892275826 0.5216877731810028 1.0000   
         C         C         1.0       0.388732080888487   0.593821441663352   0.49894175649385225          1.0000   
         C         C         1.0       0.3598185289272979  0.5615816415418026  0.49508046418140655          1.0000   
         C         C         1.0       0.3320047153865302  0.551447700665133   0.5137680624825856 1.0000   
         C         C         1.0       0.3339630648790191  0.572415816620434   0.537086049219427  1.0000   
         C         C         1.0       0.4299633878893595  0.6575086283877578  0.580147235714759  1.0000   
         C         C         1.0       0.45992939514893993           0.6825347957298896 0.5933204436558169 1.0000   
         C         C         1.0       0.46058813899123724           0.7070340188060079 0.6125564948666748 1.0000   
         C         C         1.0       0.4308490157281822  0.7078719403676637  0.6137301786598369 1.0000   
         C         C         1.0       0.40163882563696807           0.6853619920504669 0.5970572198531494 1.0000   
         C         C         1.0       0.3998063581587193  0.6577217868570904  0.5825826294560311 1.0000   
         H         H         1.0       0.2856929484954227  0.5325140751327727  0.7438349690623476 1.0000   
         H         H         1.0       0.2499438249767875  0.5179721872424579  0.6519155588715994 1.0000   
         H         H         1.0       0.19062498495353924           0.4796468128718419 0.6683983705707837 1.0000   
         H         H         1.0       0.2251706991631012  0.48886796994484105           0.7580769312825285 1.0000   
         H         H         1.0       0.2975318447284726  0.49606777117861367           0.6487719950574118 1.0000   
         H         H         1.0       0.3047213838714855  0.44720733367053966           0.6574424515077849 1.0000   
         H         H         1.0       0.3592583830910716  0.4925669900414816  0.7402898886282466 1.0000   
         H         H         1.0       0.35132026945952355           0.5410674152537328 0.7324027751746714 1.0000   
         H         H         1.0       0.29231829854337327           0.5962057347517136 0.6558922183548354 1.0000   
         H         H         1.0       0.3113160707655367  0.6253524840013714  0.6133676600540892 1.0000   
         H         H         1.0       0.37883993933864585           0.5843682180017299 0.59784182775086   1.0000   
         H         H         1.0       0.36140049989527306           0.5574578602986386 0.6450522499315322 1.0000   
         H         H         1.0       0.3687324692398309  0.7097490837981892  0.49581378849867735          1.0000   
         H         H         1.0       0.3933604660462376  0.6865669767686564  0.5303554312974285 1.0000   
         H         H         1.0       0.2945757928926146  0.6090372829952354  0.5613339225663496 1.0000   
         H         H         1.0       0.2662999798016369  0.6327169470804441  0.5281105732458076 1.0000   
         H         H         1.0       0.41302825868883897           0.6390414989628037 0.521271049217703  1.0000   
         H         H         1.0       0.410735780976365   0.6041136724832991  0.48308787935896863          1.0000   
         H         H         1.0       0.30453095932141405           0.5292325169545626 0.5115212550301956 1.0000   
         H         H         1.0       0.3107248648167974  0.5684698953919642  0.5498729915087591 1.0000   
         H         H         1.0       0.43075410957531546           0.6379504709506668 0.5681320360937204 1.0000   
         H         H         1.0       0.4859593287331041  0.6851789038046693  0.5913672977345298 1.0000   
         H         H         1.0       0.43170597289986473           0.729742318070537  0.6249881650480885 1.0000   
         H         H         1.0       0.37812965839572094           0.6860587330276166 0.5976641715354413 1.0000   
         C         C         1.0       0.10856537567199255           0.5816737402396747 0.8462033575706774 1.0000   
         C         C         1.0       0.1114134960349481  0.5544525845082645  0.857779247402242  1.0000   
         C         C         1.0       0.1392612516372599  0.5518839478255569  0.8507150230874442 1.0000   
         C         C         1.0       0.1671764350015558  0.5777531455933157  0.8349678242095947 1.0000   
         C         C         1.0       0.1619932466491375  0.601407224032795   0.8207045319625509 1.0000   
         C         C         1.0       0.13269268008788349           0.6025926012601996 0.8257777764603795 1.0000   
         H         H         1.0       0.092560114884287   0.533587231597916   0.8727156650254718 1.0000   
         H         H         1.0       0.14069658227587106           0.5309021598435231 0.8622316878633013 1.0000   
         H         H         1.0       0.1812826160526135  0.6209552543454034  0.8058740903970457 1.0000   
         H         H         1.0       0.13362793562887368           0.6229738077258627 0.812116906561821  1.0000   
         C         C         1.0       0.263933550351672   0.6162958586521081  0.8078521109722181 1.0000   
         C         C         1.0       0.23719342306018715           0.6120245930828732 0.8268567057622984 1.0000   
         C         C         1.0       0.24163443523065778           0.640935771063941  0.8419733713481975 1.0000   
         C         C         1.0       0.2679896650204132  0.6731775745016851  0.8344348831404191 1.0000   
         C         C         1.0       0.2932866875769683  0.6776392646423028  0.8129149137330774 1.0000   
         C         C         1.0       0.29097277797742993           0.6485591991988202 0.8006439700279948 1.0000   
         C         C         1.0       0.20257481936323488           0.576427401095354  0.8331475774370233 1.0000   
         C         C         1.0       0.18933371558769443           0.5491775080039368 0.8057540648040253 1.0000   
         C         C         1.0       0.17248195064000657           0.5141460174574982 0.8094206691317711 1.0000   
         C         C         1.0       0.15529210648487146           0.4910311359997057 0.7855282749502424 1.0000   
         C         C         1.0       0.15976842601001107           0.5023831158849617 0.7560880764584869 1.0000   
         C         C         1.0       0.17967038845921263           0.5377954097833929 0.7514144126615083 1.0000   
         C         C         1.0       0.193245909756043   0.5605019640882117  0.7756433015060805 1.0000   
         C         C         1.0       0.20585573494667486           0.5764599308039821 0.891196736889137  1.0000   
         C         C         1.0       0.21606113025043613           0.5723812005498773 0.9183896679865712 1.0000   
         C         C         1.0       0.24085979334480495           0.562933228661303  0.9209023350937324 1.0000   
         C         C         1.0       0.2533193237878666  0.5557172390766036  0.8942881472521538 1.0000   
         C         C         1.0       0.2363230137558025  0.5527544607361163  0.8673552541222951 1.0000   
         C         C         1.0       0.2130739041959319  0.5653572904534108  0.8651569110628891 1.0000   
         C         C         1.0       0.2571157080698889  0.5637357653787463  0.9532146927778123 1.0000   
         C         C         1.0       0.33430407103555126           0.673853892489924  0.9458391144667496 1.0000   
         C         C         1.0       0.30256161138615223           0.6634768603242024 0.9596445864342933 1.0000   
         C         C         1.0       0.2790935886851494  0.628831510752377   0.9620105331995483 1.0000   
         C         C         1.0       0.28597672462904095           0.6040373641094079 0.9526102849708278 1.0000   
         C         C         1.0       0.3183136378026606  0.6152390733295663  0.9405383598476663 1.0000   
         C         C         1.0       0.3418217441665196  0.6485950719410888  0.9363149716474083 1.0000   
         C         C         1.0       0.2729463947787711  0.5415895608578107  0.9609900046025072 1.0000   
         C         C         1.0       0.2630002562897077  0.5101892647407589  0.9489225030666659 1.0000   
         C         C         1.0       0.2774341770034649  0.49201402970171904           0.9590077567400896 1.0000   
         C         C         1.0       0.2998906703894131  0.5029947344886817  0.9832090739072146 1.0000   
         C         C         1.0       0.308478596776791   0.5342770223794925  0.9957299987268063 1.0000   
         C         C         1.0       0.2977388743812435  0.5545559097339191  0.9839949483958633 1.0000   
         C         C         1.0       0.2267734955832312  0.562330522284544   0.005790866356715441         1.0000   
         C         C         1.0       0.20284381465731    0.54490502109208    0.027467977769204843         1.0000   
         C         C         1.0       0.17478557091549812           0.5122141373370105 0.022749282500291068         1.0000   
         C         C         1.0       0.1712649434799747  0.4985987101461134  0.9942595468502581 1.0000   
         C         C         1.0       0.1937256736979456  0.5156205246692084  0.9704284866281679 1.0000   
         C         C         1.0       0.22420948551051834           0.548158043116426  0.9766920035989658 1.0000   
         H         H         1.0       0.2646415524271507  0.5960880385812519  0.7967395821411004 1.0000   
         H         H         1.0       0.22294806055858124           0.6402088425075131 0.8584722535056943 1.0000   
         H         H         1.0       0.26817793816118934           0.6963462407463548 0.8443006429850115 1.0000   
         H         H         1.0       0.3099174483779323  0.650076029109002   0.7851622167313475 1.0000   
         H         H         1.0       0.17135306751761883           0.5050455905349918 0.8305863570642439 1.0000   
         H         H         1.0       0.13985184971618334           0.46196488580770745          0.7901635988219687 1.0000   
         H         H         1.0       0.1859734934142485  0.5468120187103848  0.7277324907938277 1.0000   
         H         H         1.0       0.20316028869175828           0.5890549733052012 0.7725222257872415 1.0000   
         H         H         1.0       0.1918522778033935  0.5911595092248513  0.890182279574733  1.0000   
         H         H         1.0       0.2054719657927678  0.5787650782965015  0.9385679336097177 1.0000   
         H         H         1.0       0.27325014262959496           0.5483491695335382 0.8972186207658285 1.0000   
         H         H         1.0       0.24632489727420553           0.5475362153336755 0.8465588763060817 1.0000   
         H         H         1.0       0.2954414308634135  0.6821894325067427  0.967211899721986  1.0000   
         H         H         1.0       0.25384792631271025           0.6210700557596328 0.9674101825406426 1.0000   
         H         H         1.0       0.3249768056905949  0.5975820597813759  0.9308423827003388 1.0000   
         H         H         1.0       0.36753069192421733           0.6546727598227432 0.9257670227833077 1.0000   
         H         H         1.0       0.24543669256823406           0.5009903924135644 0.9297779651936973 1.0000   
         H         H         1.0       0.26846251630757834           0.46648384033150414          0.9506061147071043 1.0000   
         H         H         1.0       0.3254377446411382  0.5439710147920822  0.015794161821928165         1.0000   
         H         H         1.0       0.30285601963678205           0.5776471098548481 0.9970196275614638 1.0000   
         H         H         1.0       0.2484979606125422  0.5852219419507889  0.013566314531100687         1.0000   
         H         H         1.0       0.20894516572208113           0.552073390636977  0.051499455536785144         1.0000   
         H         H         1.0       0.150673170700114   0.4720434922130628  0.9894961589115159 1.0000   
         H         H         1.0       0.1887236887806781  0.5013594473776372  0.950067222725752  1.0000   
         C         C         1.0       0.5200960615125341  0.002180775841930993         0.8603092627537525 1.0000   
         C         C         1.0       0.5076779481159257  0.981674548198649   0.835488278977502  1.0000   
         C         C         1.0       0.5282866833910497  0.9711719447215226  0.822041419539662  1.0000   
         C         C         1.0       0.5598884673584444  0.9773427079749525  0.8349754256927675 1.0000   
         C         C         1.0       0.5686094097155479  0.9935735252155894  0.8630842579684179 1.0000   
         C         C         1.0       0.5501164114542834  0.008125611081658768         0.8744610518728164 1.0000   
         H         H         1.0       0.4821896342571393  0.9757717564178998  0.8282272828069224 1.0000   
         H         H         1.0       0.5173103858484811  0.9541016793444482  0.8027336769019146 1.0000   
         H         H         1.0       0.5911750079201247  0.997082114992942   0.8756164475883442 1.0000   
         H         H         1.0       0.5545005732423911  0.019305547894216568         0.896998546893861  1.0000   
         C         C         1.0       0.63964158891113    0.023646346690179003         0.8242179024887759 1.0000   
         C         C         1.0       0.6265178167665376  0.9892054960735112  0.8241191074338822 1.0000   
         C         C         1.0       0.6498497495914544  0.9779523861737573  0.821290439244975  1.0000   
         C         C         1.0       0.6846085714852586  0.0006080959111776085        0.8164237522582793 1.0000   
         C         C         1.0       0.6973892890738467  0.03616176772835076           0.8130225103754503 1.0000   
         C         C         1.0       0.6738307150077708  0.046726592644116716         0.8170629302461824 1.0000   
         C         C         1.0       0.5847801382057477  0.9646138933970365  0.8220411040845498 1.0000   
         C         C         1.0       0.5819230649416492  0.9596864915873458  0.7867116754806898 1.0000   
         C         C         1.0       0.5838271438534938  0.9330343482014614  0.7729907936677688 1.0000   
         C         C         1.0       0.5792757521628309  0.9261453191483848  0.7420562787757514 1.0000   
         C         C         1.0       0.5735927612506299  0.9472862788264493  0.7244083147451528 1.0000   
         C         C         1.0       0.5740291432831012  0.9755475920018589  0.7369762094403928 1.0000   
         C         C         1.0       0.5794097630999023  0.9829115804077656  0.7674717769150942 1.0000   
         C         C         1.0       0.581661554396579   0.927027728596743   0.8677461498048027 1.0000   
         C         C         1.0       0.5632412335684968  0.9004746110393137  0.8877533484813868 1.0000   
         C         C         1.0       0.5275455395032653  0.8775728815590845  0.8823067450438289 1.0000   
         C         C         1.0       0.5157491735643255  0.876935816596742   0.853160838512954  1.0000   
         C         C         1.0       0.5355446932675061  0.9004585668568731  0.8321450203049847 1.0000   
         C         C         1.0       0.5674842880148601  0.9288414972145278  0.8403208274301059 1.0000   
         C         C         1.0       0.5000565232280197  0.8645488124322277  0.9110545628102491 1.0000   
         C         C         1.0       0.5189194392615579  0.8236372614834349  0.9924686424654431 1.0000   
         C         C         1.0       0.505544009965102   0.8452666842266249  0.9959864405009131 1.0000   
         C         C         1.0       0.5025528197088662  0.8613511090207867  0.9710680370324949 1.0000   
         C         C         1.0       0.5130738257889079  0.8559023163756966  0.9412510831186376 1.0000   
         C         C         1.0       0.5312049173320632  0.8394069819853035  0.9406877568759756 1.0000   
         C         C         1.0       0.5316468319554555  0.8218312060097068  0.9650698305494937 1.0000   
         C         C         1.0       0.46370837058366765           0.8276227105911267 0.9081857780938674 1.0000   
         C         C         1.0       0.46087615620955175           0.8019031205826266 0.8884252468022885 1.0000   
         C         C         1.0       0.43349176554846774           0.7696186854850114 0.8895833216014548 1.0000   
         C         C         1.0       0.4055974448389068  0.760875631754948   0.9098824264900491 1.0000   
         C         C         1.0       0.4053195784219724  0.7880564427444072  0.9260113525149513 1.0000   
         C         C         1.0       0.43546711096254037           0.820960553070728  0.92724963312868   1.0000   
         C         C         1.0       0.4685695707808075  0.8998679797597103  0.9064564136321752 1.0000   
         C         C         1.0       0.46263335844014936           0.9254905731798604 0.9158716013982349 1.0000   
         C         C         1.0       0.48619359237987403           0.9511930980185036 0.9345090005588295 1.0000   
         C         C         1.0       0.518533719420532   0.9537995266960928  0.9385848019539302 1.0000   
         C         C         1.0       0.5238218185564655  0.9281062204097341  0.9292857462437432 1.0000   
         C         C         1.0       0.49758627907511893           0.8985488105754451 0.9162795844136846 1.0000   
         H         H         1.0       0.6225067707065425  0.03429358476971453           0.8302052777047345 1.0000   
         H         H         1.0       0.640736401823038   0.9510616161987985  0.8246607196132782 1.0000   
         H         H         1.0       0.7025687266311773  0.9923608920595374  0.8117600908791704 1.0000   
         H         H         1.0       0.6829256398476178  0.07365034710213228           0.8140729573331026 1.0000   
         H         H         1.0       0.5868098203562334  0.9149262115739182  0.7879137732512339 1.0000   
         H         H         1.0       0.5786375550796059  0.9047466527401341  0.7316703988287581 1.0000   
         H         H         1.0       0.5724221146103199  0.9944673198514299  0.7223774714234303 1.0000   
         H         H         1.0       0.5815232804711797  0.0052425552071950765        0.7756195645152854 1.0000   
         H         H         1.0       0.6059890932782372  0.9496317195439435  0.8756893436900104 1.0000   
         H         H         1.0       0.5756222665280971  0.9015086192026868  0.9091615096439372 1.0000   
         H         H         1.0       0.4885663534670885  0.8584544436412163  0.8490318301407547 1.0000   
         H         H         1.0       0.5217140252559118  0.8978439248873149  0.8119498502044582 1.0000   
         H         H         1.0       0.49747162094023173           0.8509651520946389 0.016859951809078177         1.0000   
         H         H         1.0       0.48738504804979793           0.874593642300046  0.9751313647066553 1.0000   
         H         H         1.0       0.5385223036702352  0.8349940063630493  0.917961901140117  1.0000   
         H         H         1.0       0.5424712362073173  0.8043190155308202  0.9630638878376833 1.0000   
         H         H         1.0       0.4844881940678356  0.8080070159547231  0.8770300117078789 1.0000   
         H         H         1.0       0.43258648015870893           0.7478367453292326 0.8750673130625162 1.0000   
         H         H         1.0       0.38329671549840066           0.7844365218533849 0.9411758083091906 1.0000   
         H         H         1.0       0.4353123524650954  0.8369051373999059  0.9450181677590549 1.0000   
         H         H         1.0       0.44904963410084775           0.8785862277831812 0.892694242360754  1.0000   
         H         H         1.0       0.43809785283585584           0.9225652092797234 0.908060936936527  1.0000   
         H         H         1.0       0.5387390061324936  0.9745050651547779  0.9527109623227416 1.0000   
         H         H         1.0       0.547458415099453   0.9297049337756976  0.9348449616843445 1.0000   
         C         C         1.0       0.32183534996196883           0.7471217261083449 0.7511186368395756 1.0000   
         C         C         1.0       0.31260544769716075           0.7715513426389636 0.7505868750342777 1.0000   
         C         C         1.0       0.33085397661137317           0.8002820833075385 0.7329906425089626 1.0000   
         C         C         1.0       0.3629291824205686  0.8088852035762844  0.7189802629198139 1.0000   
         C         C         1.0       0.3724060928977111  0.784466875463443   0.7203762887729742 1.0000   
         C         C         1.0       0.3527488340561959  0.7548842309236452  0.7360309807597777 1.0000   
         H         H         1.0       0.28658206705406813           0.7651502225359081 0.759941558330633  1.0000   
         H         H         1.0       0.32049979672998546           0.8166579650146828 0.7323759651876266 1.0000   
         H         H         1.0       0.39401927969154116           0.787546993926523  0.7045392046596299 1.0000   
         H         H         1.0       0.3635848697069706  0.7385203084369791  0.7360583482244404 1.0000   
         C         C         1.0       0.4473721742523106  0.8544133533932997  0.7218931265930807 1.0000   
         C         C         1.0       0.42895755407277875           0.8640408336767255 0.7030390704143106 1.0000   
         C         C         1.0       0.44732357096635733           0.8913831628004297 0.6843283882451565 1.0000   
         C         C         1.0       0.48232798470715416           0.9039771493188101 0.6790817513822207 1.0000   
         C         C         1.0       0.5008326701118276  0.8922030372204424  0.6936232451815071 1.0000   
         C         C         1.0       0.48270757065282105           0.8666305152886993 0.7164084430203803 1.0000   
         C         C         1.0       0.3871633681985509  0.8442262833543822  0.6996940928718706 1.0000   
         C         C         1.0       0.3781401256920307  0.8737908359971683  0.709240907234174  1.0000   
         C         C         1.0       0.369279696722313   0.8916550483937611  0.6880765455717437 1.0000   
         C         C         1.0       0.3610539055042412  0.9147564490159541  0.6991028832449585 1.0000   
         C         C         1.0       0.366241861116185   0.9256005869816273  0.7295113416456459 1.0000   
         C         C         1.0       0.376107725133457   0.9084281191774473  0.7495045783194755 1.0000   
         C         C         1.0       0.3812056654409155  0.8830477405624358  0.7402720308678991 1.0000   
         C         C         1.0       0.3991110467858379  0.8256518607396088  0.6462800768237579 1.0000   
         C         C         1.0       0.39678599697236033           0.8296020856578805 0.6156145595298466 1.0000   
         C         C         1.0       0.36739523430719084           0.8309434257320973 0.6050974450134028 1.0000   
         C         C         1.0       0.3393022450270432  0.8203817841515061  0.6238345348136708 1.0000   
         C         C         1.0       0.3446984132871622  0.8219911786252138  0.6551792052397546 1.0000   
         C         C         1.0       0.37604991004772864           0.8280478124324977 0.6663408108091262 1.0000   
         C         C         1.0       0.37339029577220195           0.8469580842100622 0.5728210898436995 1.0000   
         C         C         1.0       0.4802504973573098  0.9300444045659031  0.5513146428614875 1.0000   
         C         C         1.0       0.46268677385867085           0.9040200737603008 0.5311579308942405 1.0000   
         C         C         1.0       0.4285688944678677  0.8782855843218322  0.537202241768616  1.0000   
         C         C         1.0       0.4127773979886463  0.8764272099646154  0.564984574090983  1.0000   
         C         C         1.0       0.43007888217079954           0.9037890099427782 0.5840245836885595 1.0000   
         C         C         1.0       0.4631988070347901  0.9313524916589501  0.5773493551718341 1.0000   
         C         C         1.0       0.35426342969295105           0.8686907286624027 0.5670335640748907 1.0000   
         C         C         1.0       0.34238915048412577           0.8810738825000825 0.5903233937226608 1.0000   
         C         C         1.0       0.32626716333061245           0.8985066576573757 0.5837241135641403 1.0000   
         C         C         1.0       0.3187889368024307  0.9016105873077137  0.5544684666089285 1.0000   
         C         C         1.0       0.3372043737830286  0.8963222929233056  0.5310961804309906 1.0000   
         C         C         1.0       0.35398755264988274           0.8802595824474523 0.5376576948031107 1.0000   
         C         C         1.0       0.31667724700474525           0.7955429741188728 0.5490152679854186 1.0000   
         C         C         1.0       0.2980763882726623  0.7650578688539651  0.5334727230533703 1.0000   
         C         C         1.0       0.31466603270272714           0.7476076559397532 0.5244738162730577 1.0000   
         C         C         1.0       0.35148654297737036           0.7637396696279787 0.5271005213288072 1.0000   
         C         C         1.0       0.3702265326067208  0.7956602222038283  0.5422327174772644 1.0000   
         C         C         1.0       0.3532825151447192  0.8119176020751345  0.5529141275890943 1.0000   
         H         H         1.0       0.4343828231478348  0.832369223389538   0.738138870406018  1.0000   
         H         H         1.0       0.43507130062114213           0.9024081004302816 0.6722259848641939 1.0000   
         H         H         1.0       0.4939970790637777  0.9219788169262754  0.6617526849960695 1.0000   
         H         H         1.0       0.49416647210583375           0.8549980216468636 0.7273756400342163 1.0000   
         H         H         1.0       0.36588029897107077           0.8846206927925013 0.6646682634925352 1.0000   
         H         H         1.0       0.3579514405992889  0.9303016378503144  0.6828099171443884 1.0000   
         H         H         1.0       0.375310069706686   0.9149781194054131  0.7725088248959867 1.0000   
         H         H         1.0       0.3868265400312338  0.8697056542018848  0.758079518150063  1.0000   
         H         H         1.0       0.4219533253443201  0.8264664732156968  0.6535011003774983 1.0000   
         H         H         1.0       0.4200825252436687  0.8353329783935759  0.6038547192388853 1.0000   
         H         H         1.0       0.31598752653256507           0.820460933184097  0.6186169695120146 1.0000   
         H         H         1.0       0.3267765169861965  0.8243269204459233  0.6703916702849618 1.0000   
         H         H         1.0       0.4736692001340501  0.904817014780391   0.5078994568133051 1.0000   
         H         H         1.0       0.41371152154079066           0.8610531265810619 0.5202010790829418 1.0000   
         H         H         1.0       0.4153906055660692  0.905354737283511   0.6033503243398369 1.0000   
         H         H         1.0       0.474120978143903   0.9545409468858975  0.5912772752020182 1.0000   
         H         H         1.0       0.34654417471186855           0.8806371981640436 0.6145504169663891 1.0000   
         H         H         1.0       0.3137773826375707  0.9022833802763631  0.60285764007026   1.0000   
         H         H         1.0       0.3336472254029569  0.900343075224099   0.507602349745275  1.0000   
         H         H         1.0       0.3647690774085096  0.8732452244150508  0.5185853243677568 1.0000   
         H         H         1.0       0.3009049171214404  0.8055272680250982  0.5584973661754407 1.0000   
         H         H         1.0       0.2695675930698257  0.7522263201388201  0.531448603565983  1.0000   
         H         H         1.0       0.3663167305057005  0.7508171984029459  0.5212772957572944 1.0000   
         H         H         1.0       0.39680426699999977           0.8043984221097277 0.5492585379462599 1.0000   
         C         C         1.0       0.522545500949343   0.6149137700524692  0.8679131641642109 1.0000   
         C         C         1.0       0.5467663463594247  0.6494071259566123  0.8651547822202978 1.0000   
         C         C         1.0       0.5344027047887544  0.6709685849545709  0.8587498682402046 1.0000   
         C         C         1.0       0.4987741832547943  0.6588120846747999  0.853868524463697  1.0000   
         C         C         1.0       0.47626087439924586           0.6230539372716546 0.8556612297494764 1.0000   
         C         C         1.0       0.4873735242028788  0.6014482549380007  0.8637322289733479 1.0000   
         H         H         1.0       0.5737466763721119  0.6599041529767586  0.8702233232730825 1.0000   
         H         H         1.0       0.5522091365160882  0.6973835017341795  0.8605907480970258 1.0000   
         H         H         1.0       0.4492436794309325  0.6112559985801924  0.8493238053071913 1.0000   
         H         H         1.0       0.4706458541320157  0.5749600649450591  0.8640997656635239 1.0000   
         C         C         1.0       0.4483411092155998  0.661091151370025   0.8103918750298986 1.0000   
         C         C         1.0       0.4488724172378476  0.671735739009035   0.8392511296967672 1.0000   
         C         C         1.0       0.4286078596662988  0.6859461052565502  0.8474553031468147 1.0000   
         C         C         1.0       0.40838934809298216           0.6880591017788745 0.8248422460403615 1.0000   
         C         C         1.0       0.41195067638183325           0.6814435472524238 0.7952140209831754 1.0000   
         C         C         1.0       0.4315675436189295  0.6669815022738323  0.7876275285888784 1.0000   
         C         C         1.0       0.4827581778332621  0.6836316802591191  0.8590682804120756 1.0000   
         C         C         1.0       0.5079184678238301  0.72247716684022    0.8488816751978651 1.0000   
         C         C         1.0       0.507379805134683   0.7487064039051191  0.8623676382933452 1.0000   
         C         C         1.0       0.5321852103370346  0.7836437050710793  0.855082576123661  1.0000   
         C         C         1.0       0.5526584536432602  0.7915354630433352  0.8298698215989768 1.0000   
         C         C         1.0       0.5486217342027304  0.7645278533182807  0.8124698203528775 1.0000   
         C         C         1.0       0.5264514397720649  0.7306039937880777  0.8218157252424009 1.0000   
         C         C         1.0       0.4395782763878035  0.6506535061144698  0.9057756405597325 1.0000   
         C         C         1.0       0.4384196621532169  0.6378554028414078  0.9337353326303489 1.0000   
         C         C         1.0       0.4688330961801294  0.6527335920263029  0.9520747349721184 1.0000   
         C         C         1.0       0.4978428094696521  0.6848989573095321  0.9432761780975956 1.0000   
         C         C         1.0       0.500022534702132   0.6940699467686244  0.9145810395868107 1.0000   
         C         C         1.0       0.47202893724434314           0.6780864556259537 0.89482012140381   1.0000   
         C         C         1.0       0.46977248509045505           0.6402042500386108 0.9864296803109637 1.0000   
         C         C         1.0       0.3827434271540924  0.5376488415558873  0.008809259580232043         1.0000   
         C         C         1.0       0.40272253213285436           0.5422821338007182 0.983219379098903  1.0000   
         C         C         1.0       0.42892027547551786           0.5744757164477057 0.9744748340999418 1.0000   
         C         C         1.0       0.4367959121740022  0.6027998582386134  0.9931767881686732 1.0000   
         C         C         1.0       0.41730089252904795           0.5966249636583165 0.01883661359760125          1.0000   
         C         C         1.0       0.3899805167124786  0.5643261784418936  0.026937567297653064         1.0000   
         C         C         1.0       0.4718845854391455  0.6714921408286718  0.0060532117085609904        1.0000   
         C         C         1.0       0.4451365071000397  0.6781605293638411  0.005300659007292374         1.0000   
         C         C         1.0       0.4495452559103022  0.7099517122445083  0.014961544717668307         1.0000   
         C         C         1.0       0.4822696866833926  0.7355963171580526  0.024293623996183733         1.0000   
         C         C         1.0       0.5084382900418533  0.728392088733175   0.026619090585234373         1.0000   
         C         C         1.0       0.5043128878189154  0.6980817233551994  0.01767277605536588          1.0000   
         C         C         1.0       0.5090482413908601  0.6323128418071557  0.020996555335485168         1.0000   
         C         C         1.0       0.5414402381420104  0.6378015000511286  0.028350527387385194         1.0000   
         C         C         1.0       0.5649160397827571  0.642344918382144   0.005467231988710575         1.0000   
         C         C         1.0       0.5558160700304791  0.6401833130114897  0.9755955394052147 1.0000   
         C         C         1.0       0.5247958521216769  0.6370430722671525  0.9683794508493268 1.0000   
         C         C         1.0       0.50199564756395    0.6361266219549924  0.9912945083446923 1.0000   
         H         H         1.0       0.4655305117325819  0.6514892365764152  0.8020673371784309 1.0000   
         H         H         1.0       0.4296677159839434  0.6963670369945539  0.869622060495733  1.0000   
         H         H         1.0       0.39136954717660116           0.697834030013992  0.8316283280709297 1.0000   
         H         H         1.0       0.43324860799967574           0.6602494558398648 0.7635611370313862 1.0000   
         H         H         1.0       0.4906383868868136  0.7451171670860868  0.8818187523816464 1.0000   
         H         H         1.0       0.5310222766181835  0.8042719847552254  0.8681063700617471 1.0000   
         H         H         1.0       0.5629359977117313  0.7696832060112803  0.7905368035631167 1.0000   
         H         H         1.0       0.5237220995807904  0.7117159343516465  0.8063827009571399 1.0000   
         H         H         1.0       0.4174456154888384  0.6378884851610123  0.8915536846288363 1.0000   
         H         H         1.0       0.4144977271414785  0.6166258080145076  0.9431768813027354 1.0000   
         H         H         1.0       0.5224538908582486  0.6996119879381897  0.9567023536292296 1.0000   
         H         H         1.0       0.523358984564171   0.7158145025967054  0.9081580703526243 1.0000   
         H         H         1.0       0.39974622057363535           0.5221503704628068 0.9677157255712736 1.0000   
         H         H         1.0       0.4434799768359352  0.5771578178381364  0.9550286378155931 1.0000   
         H         H         1.0       0.4221182851469446  0.6178258487220869  0.03404203781431159          1.0000   
         H         H         1.0       0.37641106830300586           0.5651248687846617 0.04755533891463126          1.0000   
         H         H         1.0       0.4210561073752593  0.6608053603796714  0.9935776619013406 1.0000   
         H         H         1.0       0.42706569208294437           0.7131268868432536 0.012483543933493157         1.0000   
         H         H         1.0       0.5335636089963464  0.74789027728005    0.03422056534839246          1.0000   
         H         H         1.0       0.5286523875230311  0.6969123457351446  0.017332302789993204         1.0000   
         H         H         1.0       0.4922248757773093  0.6335320981118104  0.03843031806628372          1.0000   
         H         H         1.0       0.5453979149046054  0.6370011416937239  0.05453882487663887          1.0000   
         H         H         1.0       0.5730389694219183  0.6418572938279276  0.9572672365321716 1.0000   
         H         H         1.0       0.521485791816341   0.6395738790937484  0.9444440773875505 1.0000   
         C         C         1.0       0.5489136803722368  0.7952362730415318  0.6050500889895857 1.0000   
         C         C         1.0       0.5824035470105268  0.8075295009907025  0.5948026419330058 1.0000   
         C         C         1.0       0.6050529909206023  0.8412675420335579  0.5919830007415028 1.0000   
         C         C         1.0       0.5960963639192796  0.8653199732199487  0.5991496319350825 1.0000   
         C         C         1.0       0.5635265186499643  0.8523918867406834  0.6144574225529008 1.0000   
         C         C         1.0       0.5400339336505317  0.8178696777132353  0.6156045545733354 1.0000   
         H         H         1.0       0.5875997902444994  0.7876950967456297  0.5869529468678476 1.0000   
         H         H         1.0       0.6309926068085903  0.851018198000471   0.5835308852066992 1.0000   
         H         H         1.0       0.5540088394572517  0.8684202242802564  0.623885124841355  1.0000   
         H         H         1.0       0.5145364089449644  0.8101884553298838  0.6239441835069509 1.0000   
         C         C         1.0       0.5725844729400795  0.908694384062624   0.5697056015857416 1.0000   
         C         C         1.0       0.6013233342715203  0.9238314026817288  0.5880471350165181 1.0000   
         C         C         1.0       0.6111064830081312  0.9562978087160853  0.59974684986881   1.0000   
         C         C         1.0       0.5905439335001604  0.9701922562716628  0.5940714874224636 1.0000   
         C         C         1.0       0.5621558499995629  0.9551113049788078  0.5757043414813573 1.0000   
         C         C         1.0       0.553899456936353   0.9240115834805323  0.5615927098366024 1.0000   
         C         C         1.0       0.6238220913281557  0.9065619229569357  0.594390356632403  1.0000   
         C         C         1.0       0.6497807219136066  0.9212712151033757  0.5652159089828804 1.0000   
         C         C         1.0       0.6778363037046234  0.954832285957411   0.5655645835464816 1.0000   
         C         C         1.0       0.6918519910258281  0.9709613309286373  0.539216401291912  1.0000   
         C         C         1.0       0.6846248757079624  0.954710424846469   0.5123634412674197 1.0000   
         C         C         1.0       0.6578316540239362  0.9214304125396993  0.5106397013443787 1.0000   
         C         C         1.0       0.6393615298297403  0.9060114075277609  0.5366144142820044 1.0000   
         C         C         1.0       0.6249307129677678  0.9119947541113731  0.6551188135821217 1.0000   
         C         C         1.0       0.6402369886073145  0.9143208039321753  0.6832013450386184 1.0000   
         C         C         1.0       0.6756477741940468  0.9241557721387156  0.6847263142784908 1.0000   
         C         C         1.0       0.6942174131551775  0.929875180096214   0.6573756719449233 1.0000   
         C         C         1.0       0.6771693444543753  0.9223272416640436  0.6304597061326942 1.0000   
         C         C         1.0       0.6437524546936884  0.9163272640473434  0.6276110384603216 1.0000   
         C         C         1.0       0.694287033540253   0.9314082868027493  0.7173876618137021 1.0000   
         C         C         1.0       0.7179860975851109  0.03363779152563051           0.7433084276213746 1.0000   
         C         C         1.0       0.6839479909755047  0.007770535900086584         0.7417442019735726 1.0000   
         C         C         1.0       0.6768281774352832  0.9764293614613336  0.7324490846210068 1.0000   
         C         C         1.0       0.7026603200010486  0.9698394537774624  0.721588985811551  1.0000   
         C         C         1.0       0.7352648376262034  0.9988401537568569  0.7156197137646801 1.0000   
         C         C         1.0       0.743878729939964   0.03038627099414204           0.728339132335552  1.0000   
         C         C         1.0       0.7266350085052834  0.9259165729252793  0.7187173792755924 1.0000   
         C         C         1.0       0.7242048800701143  0.8987524691860368  0.7034065852656533 1.0000   
         C         C         1.0       0.7507106492277295  0.8915351599625885  0.7052495139796956 1.0000   
         C         C         1.0       0.7788104554379222  0.9099801349708893  0.7243812976144596 1.0000   
         C         C         1.0       0.7802265513303973  0.9372014557041428  0.739379547526665  1.0000   
         C         C         1.0       0.7559420067564692  0.9459665901591757  0.7363672556921738 1.0000   
         C         C         1.0       0.6785813227333598  0.9185755487669236  0.7732107440503322 1.0000   
         C         C         1.0       0.655905685926494   0.8979866421219262  0.7960074616962848 1.0000   
         C         C         1.0       0.6325776554312172  0.8639654579018687  0.7905153096611063 1.0000   
         C         C         1.0       0.6293503165364529  0.8494908594504441  0.7611271486833645 1.0000   
         C         C         1.0       0.6479368328403118  0.8723876464857567  0.7377122145588298 1.0000   
         C         C         1.0       0.6726005392154631  0.9066628123144146  0.7432927835972184 1.0000   
         H         H         1.0       0.566158776701999   0.8853610414131994  0.5568866918301807 1.0000   
         H         H         1.0       0.6345290492282626  0.9704490499627029  0.6141111658587153 1.0000   
         H         H         1.0       0.600481684205759   0.9971486758502864  0.6021680121238996 1.0000   
         H         H         1.0       0.5334053317058783  0.9129929954711309  0.545171737229813  1.0000   
         H         H         1.0       0.684120692461392   0.9722955709302552  0.584687053074549  1.0000   
         H         H         1.0       0.709348982043041   0.997874478951418   0.5401399588395259 1.0000   
         H         H         1.0       0.6463405620218542  0.9064200779809573  0.4897235198966192 1.0000   
         H         H         1.0       0.6142604040930916  0.8816904569194755  0.5342324449540274 1.0000   
         H         H         1.0       0.5982177530673524  0.9065360134678674  0.6555247650782646 1.0000   
         H         H         1.0       0.6262214663915047  0.9139705643533684  0.7042923631133855 1.0000   
         H         H         1.0       0.7224980399987369  0.9398609995154384  0.6536627363614961 1.0000   
         H         H         1.0       0.6919746201720833  0.9219833761611276  0.6103980031102092 1.0000   
         H         H         1.0       0.6634302735505766  0.008103462202197154         0.7555626691945074 1.0000   
         H         H         1.0       0.651801556919378   0.9554186395784785  0.7388773622547783 1.0000   
         H         H         1.0       0.7544997822541735  0.996735080109303   0.7042896923379285 1.0000   
         H         H         1.0       0.7687447889616406  0.05259258762578179           0.7265567644567185 1.0000   
         H         H         1.0       0.7017430483600837  0.8810264261756364  0.6911515294841171 1.0000   
         H         H         1.0       0.7452605825414602  0.866715891910122   0.6939197593932049 1.0000   
         H         H         1.0       0.8015050441872588  0.9521830502988501  0.7543742948397368 1.0000   
         H         H         1.0       0.7575232372969836  0.9654287134531575  0.751043158805363  1.0000   
         H         H         1.0       0.6979786897018325  0.9440077841853562  0.7790842154096261 1.0000   
         H         H         1.0       0.6579148132974554  0.904454369133947   0.8198971865990083 1.0000   
         H         H         1.0       0.6103623922023247  0.8220300422226346  0.7568367444231334 1.0000   
         H         H         1.0       0.6438918411486678  0.8625039603428767  0.7146354381198289 1.0000   
         C         C         1.0       0.39099476045215975           0.011845007479544867         0.13417009311339073          1.0000   
         C         C         1.0       0.39845395939694034           0.002373869491180791         0.1614264394060451 1.0000   
         C         C         1.0       0.38165017817354907           0.9679696245827435 0.16895280691494916          1.0000   
         C         C         1.0       0.3575075301340337  0.9431105764501853  0.1508366242278259 1.0000   
         C         C         1.0       0.3509625272497862  0.9527050604216052  0.12351082004849516          1.0000   
         C         C         1.0       0.36846462791929807           0.9860541137898153 0.11511442797641129          1.0000   
         H         H         1.0       0.4179084251415165  0.022255661456852538         0.1755531735924721 1.0000   
         H         H         1.0       0.39114152342005754           0.9644385734643394 0.19030711372558126          1.0000   
         H         H         1.0       0.3285203858513271  0.9325082202322286  0.10973864319797397          1.0000   
         H         H         1.0       0.3585781458759739  0.9920237813022711  0.09546126192987939          1.0000   
         C         C         1.0       0.2780870231099551  0.905338651106861   0.16411147066296863          1.0000   
         C         C         1.0       0.2925409901698137  0.8836434201082368  0.15909435167174396          1.0000   
         C         C         1.0       0.27001324527663956           0.8474052506674644 0.1590421485010218 1.0000   
         C         C         1.0       0.23624041658880165           0.834493479608289  0.1679105001645727 1.0000   
         C         C         1.0       0.2234564695203851  0.8561015670138992  0.1746206284651528 1.0000   
         C         C         1.0       0.2438854936667685  0.89117718643406    0.170999326397745  1.0000   
         C         C         1.0       0.33524536936642607           0.9028495895197092 0.16244505395685827          1.0000   
         C         C         1.0       0.33616747398193103           0.8968062887296384 0.19900236496047485          1.0000   
         C         C         1.0       0.33435988296933644           0.8669977707880404 0.20885893698277333          1.0000   
         C         C         1.0       0.330622528876153   0.8618116460640773  0.23977674559655288          1.0000   
         C         C         1.0       0.33213878721180684           0.8858316545357284 0.2600486045007446 1.0000   
         C         C         1.0       0.32954353504111444           0.9120230273222554 0.24946981353554906          1.0000   
         C         C         1.0       0.3323145189950472  0.9182243448566092  0.2186380477392308 1.0000   
         C         C         1.0       0.33956075149951015           0.8725546487693866 0.11370383992609485          1.0000   
         C         C         1.0       0.35876286132151886           0.8650645011741754 0.09412260573532955          1.0000   
         C         C         1.0       0.39214747114189435           0.8702415009262621 0.10316188962703149          1.0000   
         C         C         1.0       0.40249585861561943           0.8825697940802653 0.1324996223450869 1.0000   
         C         C         1.0       0.38276409718389337           0.8905814214833011 0.15090648815885602          1.0000   
         C         C         1.0       0.3528308190592472  0.888195834817191   0.1419913503565031 1.0000   
         C         C         1.0       0.4149545158059602  0.8649193599976245  0.07624745342265336          1.0000   
         C         C         1.0       0.3483707953419488  0.7563502435251591  0.049222300041105185         1.0000   
         C         C         1.0       0.3555777935282279  0.7834554876051942  0.02999008376053009          1.0000   
         C         C         1.0       0.37266619089372816           0.8161667378479318 0.039013541054356234         1.0000   
         C         C         1.0       0.38684168603996594           0.8254185473970543 0.06676891165057147          1.0000   
         C         C         1.0       0.37915042643004143           0.7986008628042177 0.0876698141251411 1.0000   
         C         C         1.0       0.35733382523057167           0.7647044137668044 0.07855039904171965          1.0000   
         C         C         1.0       0.4503458660092461  0.8652562181699202  0.08587210047271328          1.0000   
         C         C         1.0       0.4781420920892073  0.8954484922580647  0.09894945850110001          1.0000   
         C         C         1.0       0.511469323830059   0.9014646440154465  0.09909793690178993          1.0000   
         C         C         1.0       0.5192256564577211  0.8772383822818     0.08862158247483325          1.0000   
         C         C         1.0       0.4924250312806166  0.8460017892047846  0.07898716060104155          1.0000   
         C         C         1.0       0.4591955692846873  0.8410279644571188  0.07582774552414065          1.0000   
         C         C         1.0       0.4447262847865157  0.8907992591022168  0.023289128227315103         1.0000   
         C         C         1.0       0.4580790047062065  0.9168355072146215  0.001696552607148183         1.0000   
         C         C         1.0       0.45447959600068244           0.9455493334259834 0.005495119690617889         1.0000   
         C         C         1.0       0.435727067307981   0.9451505818189899  0.030216198934234995         1.0000   
         C         C         1.0       0.4218394254207496  0.9195338516483295  0.05111291700913063          1.0000   
         C         C         1.0       0.4262430326904865  0.891836373394038   0.048074157148317524         1.0000   
         H         H         1.0       0.2927940465471165  0.9329676084509184  0.16791632204340123          1.0000   
         H         H         1.0       0.27879935299550945           0.830500378563729  0.1572726159850461 1.0000   
         H         H         1.0       0.22073692088756552           0.8075096325560231 0.17382121190022193          1.0000   
         H         H         1.0       0.23482357105608978           0.9084101799597961 0.1745857893096367 1.0000   
         H         H         1.0       0.33298054708337244           0.8482355528128865 0.19305937039353113          1.0000   
         H         H         1.0       0.3299280616997421  0.8403253567158498  0.25203409183987147          1.0000   
         H         H         1.0       0.3316068404031594  0.9313781487890944  0.26532231746745677          1.0000   
         H         H         1.0       0.32374217766941343           0.9357293164066559 0.21161766662988216          1.0000   
         H         H         1.0       0.31426702199012485           0.8678316933665452 0.10545467839587495          1.0000   
         H         H         1.0       0.3480188192127914  0.8549220695123918  0.07193424443134391          1.0000   
         H         H         1.0       0.42751881804565933           0.8845870721633267 0.14005826996333992          1.0000   
         H         H         1.0       0.3951705819901297  0.9051022709285488  0.171910087001224  1.0000   
         H         H         1.0       0.3458349466414052  0.7787751184927071  0.006125186828389806         1.0000   
         H         H         1.0       0.37507261151017446           0.8356037797640533 0.022683769559811662         1.0000   
         H         H         1.0       0.3872499637067156  0.8056938411095272  0.11167462090547305          1.0000   
         H         H         1.0       0.35266617377415693           0.7435970205715359 0.09252918825240408          1.0000   
         H         H         1.0       0.4752777943912538  0.9159254190615492  0.10527602111716441          1.0000   
         H         H         1.0       0.532526972819539   0.925582152240336   0.10428715041269097          1.0000   
         H         H         1.0       0.4979915331548745  0.8276530744642739  0.07124747464420149          1.0000   
         H         H         1.0       0.4413601691893449  0.8210273905003517  0.06136557911841559          1.0000   
         H         H         1.0       0.45531460422437403           0.8747324280910618 0.019524965597438992         1.0000   
         H         H         1.0       0.4738623591390228  0.9159848484438057  0.983145167685811  1.0000   
         H         H         1.0       0.4325323237688782  0.9669728236140654  0.035230030246195615         1.0000   
         H         H         1.0       0.4110124074903331  0.9240564637410921  0.07200604863669302          1.0000   
         C         C         1.0       0.4731864361519382  0.9546604565619423  0.4469512554645697 1.0000   
         C         C         1.0       0.5080408976457194  0.9741744764202362  0.43954481640087867          1.0000   
         C         C         1.0       0.5280579233366033  0.9594336938716567  0.43405353269523916          1.0000   
         C         C         1.0       0.5154437135113469  0.9263105915331995  0.44161924202527936          1.0000   
         C         C         1.0       0.4803769485966364  0.9069320873087036  0.44839182076667145          1.0000   
         C         C         1.0       0.459354339862468   0.9206762693483344  0.4505065334233598 1.0000   
         H         H         1.0       0.520119874215849   0.001697374179366884         0.4393224513050782 1.0000   
         H         H         1.0       0.5563087470765009  0.9757964456896487  0.4282893912109336 1.0000   
         H         H         1.0       0.4663962069463577  0.8785052650367606  0.45199023688367707          1.0000   
         H         H         1.0       0.4327456647528577  0.9045784266896596  0.45389573836647323          1.0000   
         C         C         1.0       0.5148713136800384  0.8690578877815219  0.48351221138329276          1.0000   
         C         C         1.0       0.525345957933119   0.8731420647723961  0.4535155453619583 1.0000   
         C         C         1.0       0.5304407572353428  0.847326765957383   0.4418166936031158 1.0000   
         C         C         1.0       0.5294241360345724  0.8214899870924357  0.4598901458306697 1.0000   
         C         C         1.0       0.5166403960503355  0.8178564124615969  0.4885301387578379 1.0000   
         C         C         1.0       0.5111029662929398  0.8427029974556207  0.5010165842919264 1.0000   
         C         C         1.0       0.538024066227339   0.9080534763095887  0.4353082839632686 1.0000   
         C         C         1.0       0.5790339789763048  0.9295819300864491  0.44520985843462807          1.0000   
         C         C         1.0       0.6048032694410046  0.9237052265578383  0.4322069002254261 1.0000   
         C         C         1.0       0.639599607434454   0.9458308670003682  0.4371730060741045 1.0000   
         C         C         1.0       0.6507645154501306  0.972670254644084   0.4574451880241687 1.0000   
         C         C         1.0       0.6255374668275605  0.9769538587375018  0.4724711814877865 1.0000   
         C         C         1.0       0.5906593999039259  0.9553683490583416  0.4666229440065682 1.0000   
         C         C         1.0       0.4992388245380296  0.8789560513865993  0.38825088646871697          1.0000   
         C         C         1.0       0.4903682565905607  0.8823614099207403  0.3594111514222371 1.0000   
         C         C         1.0       0.5129141953639166  0.9084143958630405  0.3398996745432521 1.0000   
         C         C         1.0       0.5477769148730298  0.9284259743782277  0.34903106054267946          1.0000   
         C         C         1.0       0.5567689780011059  0.9250816549260058  0.37841512909940717          1.0000   
         C         C         1.0       0.5320014600250489  0.9024371093094906  0.3988287233724944 1.0000   
         C         C         1.0       0.49973726482134373           0.9185490810310192 0.3102309057512602 1.0000   
         C         C         1.0       0.5190170707144423  0.8614279767917874  0.24064701394649185          1.0000   
         C         C         1.0       0.4867449856207336  0.8475038495442295  0.25552574552089735          1.0000   
         C         C         1.0       0.4833139194673228  0.8646629371517596  0.2789152432088221 1.0000   
         C         C         1.0       0.5095146861127813  0.8990299745544844  0.2855938132538554 1.0000   
         C         C         1.0       0.5414648129124886  0.9130331650277705  0.2705618108348028 1.0000   
         C         C         1.0       0.5459070919613865  0.8939398644768511  0.24817502602701275          1.0000   
         C         C         1.0       0.5183199959941037  0.9590713563599523  0.3058690263312025 1.0000   
         C         C         1.0       0.5266926106732984  0.9800463376497236  0.33142177275744483          1.0000   
         C         C         1.0       0.547131362250352   0.015162580364615152         0.328947233915382  1.0000   
         C         C         1.0       0.5645350086203295  0.02895838224999192           0.3014695408194236 1.0000   
         C         C         1.0       0.5534248387643435  0.00896783655226141           0.2759712052821609 1.0000   
         C         C         1.0       0.5298447846596569  0.9737788235164688  0.278024228962492  1.0000   
         C         C         1.0       0.44291888564058524           0.9075753574643537 0.28501275150556676          1.0000   
         C         C         1.0       0.4113100493758311  0.904153383115838   0.2845897003446786 1.0000   
         C         C         1.0       0.39632545085228466           0.9058237131383237 0.31210798341325613          1.0000   
         C         C         1.0       0.41370467148790774           0.9074861469480264 0.3385670182863112 1.0000   
         C         C         1.0       0.4463189227826324  0.9130425970784731  0.33785569942347415          1.0000   
         C         C         1.0       0.4605155805611501  0.9104881913957618  0.3114074060740031 1.0000   
         H         H         1.0       0.5165061484712018  0.8903869776902389  0.49537713090766194          1.0000   
         H         H         1.0       0.5378391632165892  0.8489111620705536  0.41828358428395085          1.0000   
         H         H         1.0       0.53312259982921    0.8014170870846686  0.44991178114207264          1.0000   
         H         H         1.0       0.5073903249746301  0.8427605889917432  0.5248230597639755 1.0000   
         H         H         1.0       0.5960619850696293  0.9026057827189548  0.41671692659880993          1.0000   
         H         H         1.0       0.6591377231476152  0.9416546603356531  0.4247140725457601 1.0000   
         H         H         1.0       0.6322766030909834  0.9948017591890222  0.4900928558851611 1.0000   
         H         H         1.0       0.5705322806391805  0.9591030184225233  0.47884859319561607          1.0000   
         H         H         1.0       0.4810316416122255  0.8607458214196169  0.40441278808763753          1.0000   
         H         H         1.0       0.46297340258412695           0.8660803847083329 0.3523288105558013 1.0000   
         H         H         1.0       0.5671384071692744  0.9471749923589146  0.33392652086752855          1.0000   
         H         H         1.0       0.5822762778490235  0.9429722030743967  0.38531212456341596          1.0000   
         H         H         1.0       0.46248909809861455           0.8251165990358754 0.24735269763990037          1.0000   
         H         H         1.0       0.45778450192617226           0.8520967228066567 0.2897034047725836 1.0000   
         H         H         1.0       0.5626858304270138  0.9377110892194767  0.2781207388718287 1.0000   
         H         H         1.0       0.5727799424488008  0.90538552582031    0.2367965989249127 1.0000   
         H         H         1.0       0.5160984119759641  0.9677485862310261  0.3530102948295561 1.0000   
         H         H         1.0       0.5546674946183263  0.030560958131632843         0.3500510307531557 1.0000   
         H         H         1.0       0.567677643228579   0.018457393776412756         0.25509174519085104          1.0000   
         H         H         1.0       0.522230284811922   0.9577809584282391  0.2562555194907709 1.0000   
         H         H         1.0       0.4558989682853976  0.9076826623389354  0.2642072799505863 1.0000   
         H         H         1.0       0.4031352282432281  0.9047308486269146  0.26191838400779355          1.0000   
         H         H         1.0       0.4052113642882972  0.9126765990447555  0.3597734691784658 1.0000   
         H         H         1.0       0.4603615401988931  0.9230880921541619  0.3586901415030705 1.0000   
         C         C         1.0       0.3173468469369394  0.7582112917337998  0.4061322808587465 1.0000   
         C         C         1.0       0.2841743219898873  0.7491134555312826  0.41856639733341   1.0000   
         C         C         1.0       0.2765684841911601  0.7740754174229559  0.4257555338651281 1.0000   
         C         C         1.0       0.3004421984106645  0.8088684702003832  0.42175383491407104          1.0000   
         C         C         1.0       0.3324319289549336  0.8168235451128277  0.4082662914042205 1.0000   
         C         C         1.0       0.34144962957244646           0.7927018410845019 0.40260234168967446          1.0000   
         H         H         1.0       0.2624956289981705  0.7218153072695899  0.41855547377541363          1.0000   
         H         H         1.0       0.25005446210480947           0.7650507601671667 0.4316549910456222 1.0000   
         H         H         1.0       0.3536384316734533  0.8430712187409912  0.4029939978525374 1.0000   
         H         H         1.0       0.36775124339890713           0.8006296146571702 0.39587705476327906          1.0000   
         C         C         1.0       0.34450570239015865           0.8803662992798501 0.44848451181203913          1.0000   
         C         C         1.0       0.3233314375412841  0.8730159229386917  0.4234667516540473 1.0000   
         C         C         1.0       0.33298044123890247           0.8983411947958115 0.40072673705982487          1.0000   
         C         C         1.0       0.3662838561440586  0.9275802078902357  0.4015942952565142 1.0000   
         C         C         1.0       0.38802541605609125           0.9336663470950948 0.42639653994244314          1.0000   
         C         C         1.0       0.3752639557771041  0.910709178088848   0.4503839249449827 1.0000   
         C         C         1.0       0.28968234547781796           0.8378161980661037 0.42256831236431125          1.0000   
         C         C         1.0       0.26783256054528043           0.8400142248038973 0.452609068201197  1.0000   
         C         C         1.0       0.2599648785019831  0.8663205047223758  0.4549403990348781 1.0000   
         C         C         1.0       0.2561948938275571  0.8789525343008192  0.4817058567452877 1.0000   
         C         C         1.0       0.2557204849573746  0.8630381661042902  0.5078231512285364 1.0000   
         C         C         1.0       0.26007644844238986           0.8359823250046641 0.506849541953349  1.0000   
         C         C         1.0       0.26860079766073547           0.8252639083668412 0.48043604487669556          1.0000   
         C         C         1.0       0.2798020414313274  0.8268144317047663  0.3638861852711411 1.0000   
         C         C         1.0       0.258099992922251   0.8100876073050842  0.3387381861028192 1.0000   
         C         C         1.0       0.22244963534595166           0.7927067267160566 0.3435127808646266 1.0000   
         C         C         1.0       0.20891548536355384           0.7981842703233885 0.36864583972924314          1.0000   
         C         C         1.0       0.2283974752721637  0.8154428051367605  0.3928866556615047 1.0000   
         C         C         1.0       0.26552104261410553           0.8282964307336474 0.39240395312226656          1.0000   
         C         C         1.0       0.1973895583631548  0.7657164793688761  0.31944206454793617          1.0000   
         C         C         1.0       0.19192081377045928           0.8318202261181299 0.24845715183105596          1.0000   
         C         C         1.0       0.21985795131164532           0.8270023987369954 0.24976079854468164          1.0000   
         C         C         1.0       0.22447557778113097           0.8100991214404311 0.2731908838185389 1.0000   
         C         C         1.0       0.1977736901079907  0.7921530948472498  0.29391293444393535          1.0000   
         C         C         1.0       0.17055731585806932           0.7981161651512224 0.2944340416669126 1.0000   
         C         C         1.0       0.16766474223690475           0.8174283112176227 0.2713632190543815 1.0000   
         C         C         1.0       0.1596177381022887  0.7353685546797425  0.3284726672858909 1.0000   
         C         C         1.0       0.15258791231331512           0.7195220169725631 0.3575062920364194 1.0000   
         C         C         1.0       0.12135587566188911           0.6896758991463885 0.3637585539455096 1.0000   
         C         C         1.0       0.09473012197007619           0.675424110839423  0.3431839384655931 1.0000   
         C         C         1.0       0.09949761423279875           0.6928272733109953 0.3158465136907738 1.0000   
         C         C         1.0       0.13252520265244366           0.7201705321239641 0.3075934555596722 1.0000   
         C         C         1.0       0.2108764076355498  0.7312775392657299  0.279060370989654  1.0000   
         C         C         1.0       0.22340331143039813           0.7099658531066685 0.27148219792038397          1.0000   
         C         C         1.0       0.23721341238011018           0.6976907525433028 0.29204884231464295          1.0000   
         C         C         1.0       0.23883459136178642           0.7067828543149453 0.32163693981216507          1.0000   
         C         C         1.0       0.2275086813759457  0.7294815849675766  0.32969482285344853          1.0000   
         C         C         1.0       0.21263271935467168           0.7418914888895823 0.3088231307056291 1.0000   
         H         H         1.0       0.33878435422261527           0.8617458420887671 0.466399811942739  1.0000   
         H         H         1.0       0.3129431046581221  0.8938503779739411  0.3832824404072332 1.0000   
         H         H         1.0       0.3735894576793285  0.9456175520803887  0.383153112148426  1.0000   
         H         H         1.0       0.38706378823189586           0.9188857510827267 0.47064657756054457          1.0000   
         H         H         1.0       0.259398702667039   0.8785326592800031  0.43373019422860165          1.0000   
         H         H         1.0       0.2532637091148715  0.900938478988608   0.4822065024788918 1.0000   
         H         H         1.0       0.26464358338856714           0.8272565938378329 0.5274062503072886 1.0000   
         H         H         1.0       0.27338830536230074           0.8036370174177485 0.4821568727051448 1.0000   
         H         H         1.0       0.3075909715759867  0.8377288445710809  0.3600621375990591 1.0000   
         H         H         1.0       0.2680016615704901  0.8045506467333268  0.31933616676346893          1.0000   
         H         H         1.0       0.18274635588341345           0.790330980644351  0.3707604158842217 1.0000   
         H         H         1.0       0.21391007270849838           0.8195382765449047 0.410685216442359  1.0000   
         H         H         1.0       0.23823437156133603           0.837593380912744  0.23298528754599462          1.0000   
         H         H         1.0       0.2449307590319938  0.8047506706343885  0.2722179974537515 1.0000   
         H         H         1.0       0.150315197661696   0.79165872958308    0.31140311555700884          1.0000   
         H         H         1.0       0.14372435877070472           0.8188428294479954 0.27116220243790107          1.0000   
         H         H         1.0       0.17195275183769498           0.7298247727953966 0.3755200966549998 1.0000   
         H         H         1.0       0.1180495806471082  0.6811965618855205  0.38729416216982904          1.0000   
         H         H         1.0       0.0771326286875976  0.6854104099844713  0.30167236258470287          1.0000   
         H         H         1.0       0.13924094467464038           0.7281599095812525 0.2851366816098985 1.0000   
         H         H         1.0       0.20134980747354272           0.7378300226367377 0.26030712430814085          1.0000   
         H         H         1.0       0.2220434849809522  0.7021752358027167  0.2485791538791571 1.0000   
         H         H         1.0       0.2537227161423029  0.7029793041855472  0.33787786720539403          1.0000   
         H         H         1.0       0.23212181452340513           0.7392515096481443 0.3528071965717074 1.0000   
         C         C         1.0       0.38609985283685566           0.5521776634655445 0.27604010109511967          1.0000   
         C         C         1.0       0.3819266776304201  0.5753808330495632  0.29292477192558364          1.0000   
         C         C         1.0       0.3743977658965954  0.5989824617421263  0.2788584145518756 1.0000   
         C         C         1.0       0.3685334317214534  0.5973659625770426  0.24782146084913917          1.0000   
         C         C         1.0       0.3737052569005598  0.5729325261370162  0.23142640156930203          1.0000   
         C         C         1.0       0.3836823214616672  0.5522143875234241  0.2452710420819797 1.0000   
         H         H         1.0       0.3851527167966056  0.5806417853453703  0.31784302937306735          1.0000   
         H         H         1.0       0.37537858135157703           0.6200900456653964 0.2925249597524648 1.0000   
         H         H         1.0       0.37274204199320465           0.5720097771537822 0.2060342015774891 1.0000   
         H         H         1.0       0.3874800508304504  0.5338416346667051  0.23220706207846087          1.0000   
         C         C         1.0       0.4225885089303164  0.6771064698953071  0.23784379023314842          1.0000   
         C         C         1.0       0.3991552854993474  0.6494856372189751  0.21943348109382996          1.0000   
         C         C         1.0       0.4114560521443074  0.6466599387585136  0.19106422939374662          1.0000   
         C         C         1.0       0.4432650477158414  0.6730442742575095  0.17921409732448823          1.0000   
         C         C         1.0       0.46496176151329544           0.6991455382660864 0.19851951212196986          1.0000   
         C         C         1.0       0.45335822333726555           0.7022047017185427 0.22737643665617663          1.0000   
         C         C         1.0       0.3600421382277132  0.6222989179592553  0.22947094550752853          1.0000   
         C         C         1.0       0.3378116322255375  0.6351122805633264  0.24843123311976045          1.0000   
         C         C         1.0       0.3502244996777498  0.6717970560799651  0.248462017299765  1.0000   
         C         C         1.0       0.3333460374662693  0.6830155360858816  0.2670599891109209 1.0000   
         C         C         1.0       0.3035976339795308  0.6621800447363837  0.2827060536358586 1.0000   
         C         C         1.0       0.2903495072580592  0.6266719039950073  0.2822169876909552 1.0000   
         C         C         1.0       0.3091244077395144  0.6138426022755629  0.2664714798136042 1.0000   
         C         C         1.0       0.3098057044773171  0.5739416930177333  0.19604367570486889          1.0000   
         C         C         1.0       0.2987293622216498  0.562055634805736   0.16711822788672395          1.0000   
         C         C         1.0       0.3058369959494722  0.585496345997772   0.14415458599031086          1.0000   
         C         C         1.0       0.32007981447253375           0.6194533981706671 0.1533850491455976 1.0000   
         C         C         1.0       0.3354652457709083  0.630863593935644   0.18111719003676277          1.0000   
         C         C         1.0       0.33453709762281714           0.607024684618337  0.20067824320632238          1.0000   
         C         C         1.0       0.30372145321680205           0.5801232537497066 0.10763272310606027          1.0000   
         C         C         1.0       0.40578640813072403           0.5871496985221284 0.10531676077106254          1.0000   
         C         C         1.0       0.37501183588002035           0.5550594750003218 0.10693520429071791          1.0000   
         C         C         1.0       0.34298071700099586           0.5522635254780935 0.10623640686280766          1.0000   
         C         C         1.0       0.3398257551037304  0.5813656869284571  0.1029198819973352 1.0000   
         C         C         1.0       0.37189899196258897           0.6146085252650781 0.10199259208051387          1.0000   
         C         C         1.0       0.4033763716447996  0.6158427330793899  0.10487356683156034          1.0000   
         C         C         1.0       0.299951929243941   0.6068722964266304  0.08653070885475711          1.0000   
         C         C         1.0       0.27968656447573864           0.6205720066898877 0.09486261483752899          1.0000   
         C         C         1.0       0.2785596001202346  0.6455613337269054  0.0797418727883571 1.0000   
         C         C         1.0       0.300456632955566   0.6609505729103228  0.05574251897597158          1.0000   
         C         C         1.0       0.3195441345360644  0.6460999616422867  0.0444285911545132 1.0000   
         C         C         1.0       0.3175233432778493  0.6177089964738401  0.05843462687405763          1.0000   
         C         C         1.0       0.267488509290605   0.5285595888910287  0.07355434056793367          1.0000   
         C         C         1.0       0.23696409734502796           0.4996818966097753 0.06450920910556635          1.0000   
         C         C         1.0       0.20684681012681772           0.48844679386807077          0.07965514108118765          1.0000   
         C         C         1.0       0.20639016524439024           0.5040874297717571 0.10570449095139994          1.0000   
         C         C         1.0       0.23659955005574168           0.5333435548707174 0.11550287683474454          1.0000   
         C         C         1.0       0.2683780109122496  0.5463556557346069  0.09913226695770308          1.0000   
         H         H         1.0       0.4151497052059934  0.6794524103109143  0.26047694355672213          1.0000   
         H         H         1.0       0.39321072551846664           0.6249861896251809 0.1773132513048329 1.0000   
         H         H         1.0       0.450777812008402   0.6710201035440299  0.15666626375260473          1.0000   
         H         H         1.0       0.4703812810001641  0.7233217693187114  0.24306348673830405          1.0000   
         H         H         1.0       0.3747414387608341  0.6906818306021995  0.23738888732894642          1.0000   
         H         H         1.0       0.3455496242433335  0.7114224207424826  0.2659717925880115 1.0000   
         H         H         1.0       0.2642199536643575  0.608235830372573   0.2903981047314517 1.0000   
         H         H         1.0       0.29921421943469717           0.5862801170487117 0.2673042341879362 1.0000   
         H         H         1.0       0.3072511680942462  0.5579396965090113  0.21412490750887472          1.0000   
         H         H         1.0       0.28631507248047394           0.5350551644447881 0.1642325654072007 1.0000   
         H         H         1.0       0.3261814432590725  0.6410214245382581  0.13725745004352108          1.0000   
         H         H         1.0       0.3541185163555899  0.6589879766210135  0.18569068769813768          1.0000   
         H         H         1.0       0.3759973145544377  0.5307639721569392  0.10674117268719131          1.0000   
         H         H         1.0       0.31900218307180006           0.5281401945594854 0.10845147541720944          1.0000   
         H         H         1.0       0.37367832510465576           0.6388179714000773 0.10081088119071376          1.0000   
         H         H         1.0       0.4273514164497209  0.6410076794896381  0.11057195690866871          1.0000   
         H         H         1.0       0.26456462438866896           0.609876573140988  0.11600761720766982          1.0000   
         H         H         1.0       0.26019687605861513           0.6529746382236681 0.08685204348371707          1.0000   
         H         H         1.0       0.3367149348495544  0.6575797333503817  0.025010510226162408         1.0000   
         H         H         1.0       0.3359962648205121  0.6100245865073015  0.050553000836576635         1.0000   
         H         H         1.0       0.2890054476498023  0.539445842684435   0.05602497059705532          1.0000   
         H         H         1.0       0.2390208725287618  0.49365165725120214           0.03912613700679746          1.0000   
         H         H         1.0       0.18116518621014385           0.4938747263580294 0.11732342557163741          1.0000   
         H         H         1.0       0.23424747297917978           0.5459674094198892 0.13608341784762917          1.0000   
         C         C         1.0       0.7820714989199777  0.9436158672822115  0.1925271529908016 1.0000   
         C         C         1.0       0.7756973665251636  0.9111928777342961  0.18405201111281333          1.0000   
         C         C         1.0       0.7427410567749764  0.882488033088752   0.18748275539741988          1.0000   
         C         C         1.0       0.7152827411434828  0.8855817899145233  0.1998980016868199 1.0000   
         C         C         1.0       0.7239900468482167  0.9189325195190968  0.20998382012675101          1.0000   
         C         C         1.0       0.7566048357403022  0.9483531571494414  0.20339359582364988          1.0000   
         H         H         1.0       0.7968432375358183  0.9082192109776441  0.17906578931714895          1.0000   
         H         H         1.0       0.7353173135780721  0.8562315225913646  0.1838453878470853 1.0000   
         H         H         1.0       0.705232239072214   0.9214359274174043  0.22337094095780705          1.0000   
         H         H         1.0       0.7612052142383953  0.9725437453997337  0.2116759788772933 1.0000   
         C         C         1.0       0.6186807707137879  0.8451212059028738  0.22857440937439424          1.0000   
         C         C         1.0       0.6476380103439553  0.8605822335084848  0.2088500088343087 1.0000   
         C         C         1.0       0.6447397487084331  0.8803835648036765  0.18627287741230822          1.0000   
         C         C         1.0       0.6156761458004331  0.8831229958656348  0.18268081376459558          1.0000   
         C         C         1.0       0.5868321493604995  0.8648304016241323  0.20171849940034833          1.0000   
         C         C         1.0       0.5884718170506408  0.8451285023882666  0.22439028375128553          1.0000   
         C         C         1.0       0.6779226941854051  0.8515115173377852  0.20844626983991196          1.0000   
         C         C         1.0       0.6880859084898631  0.8412929982673767  0.23944526395692045          1.0000   
         C         C         1.0       0.7008700346574974  0.8192064128513069  0.23795280928192813          1.0000   
         C         C         1.0       0.7125438792618017  0.8132421078487426  0.26463091901753616          1.0000   
         C         C         1.0       0.7096708845565717  0.8253873428121639  0.29272240745849026          1.0000   
         C         C         1.0       0.6973806366114846  0.8478843804665835  0.2936919984341249 1.0000   
         C         C         1.0       0.6866168756667541  0.8556832541317133  0.2660931223847467 1.0000   
         C         C         1.0       0.6729162484992778  0.8279355412725081  0.15315547474725605          1.0000   
         C         C         1.0       0.6531174226453063  0.803812406263145   0.131032439210102  1.0000   
         C         C         1.0       0.6200344774131483  0.7742646994198203  0.13692492613752705          1.0000   
         C         C         1.0       0.6119389695184446  0.7675999657971647  0.16689253520994937          1.0000   
         C         C         1.0       0.6324822722933553  0.7912976244983435  0.1897480001794709 1.0000   
         C         C         1.0       0.661383509625824   0.8223586005050434  0.18330371258656644          1.0000   
         C         C         1.0       0.5944150294862633  0.7563814354787309  0.10913311823871841          1.0000   
         C         C         1.0       0.570605488234086   0.838734414757682   0.10138372332846916          1.0000   
         C         C         1.0       0.5982868171726077  0.8409563057978737  0.08432332953192377          1.0000   
         C         C         1.0       0.6043787750854989  0.8134808654301392  0.08432899888531273          1.0000   
         C         C         1.0       0.58499934296453    0.7859846922829796  0.10338631804027044          1.0000   
         C         C         1.0       0.5550934001472525  0.7824840083660938  0.1170153309394896 1.0000   
         C         C         1.0       0.5472076374618486  0.8085889735834699  0.1146898059012664 1.0000   
         C         C         1.0       0.5612382122276607  0.7178600954005891  0.1129178685919151 1.0000   
         C         C         1.0       0.5620897273734203  0.6933773488631919  0.13013147742517897          1.0000   
         C         C         1.0       0.5329027240199121  0.6606445235042367  0.13423604364563693          1.0000   
         C         C         1.0       0.5025556835620261  0.6509637579278058  0.11951586338987609          1.0000   
         C         C         1.0       0.5022947955175706  0.6727787083802634  0.09977460972012447          1.0000   
         C         C         1.0       0.5315186552658954  0.7054211385013652  0.09549807528080473          1.0000   
         C         C         1.0       0.6014431937182801  0.7464337868882934  0.0522704588527191 1.0000   
         C         C         1.0       0.6101912061568702  0.7316120215850193  0.028999240864227213         1.0000   
         C         C         1.0       0.6291641796562181  0.715594729187827   0.034977179226229775         1.0000   
         C         C         1.0       0.6434923633099413  0.7198457456945812  0.06356852701521055          1.0000   
         C         C         1.0       0.632916163144141   0.732485810771115   0.08787252119639691          1.0000   
         C         C         1.0       0.6122323409059198  0.747171204916434   0.08168468997227561          1.0000   
         H         H         1.0       0.6182390249993442  0.8289589123993004  0.24709497867346666          1.0000   
         H         H         1.0       0.6631195862132125  0.8879000199008723  0.1686390979152629 1.0000   
         H         H         1.0       0.61523163102511    0.8954236112520472  0.16196168613656897          1.0000   
         H         H         1.0       0.5663965237088161  0.8311999405990503  0.23775812142661956          1.0000   
         H         H         1.0       0.7004460347427561  0.8038200762193539  0.2190891751014807 1.0000   
         H         H         1.0       0.7223077439130736  0.7956088170984702  0.26321103965142073          1.0000   
         H         H         1.0       0.6960717096100408  0.8575976969450615  0.3159738158628443 1.0000   
         H         H         1.0       0.679123155262926   0.8745764150215007  0.26908977930025646          1.0000   
         H         H         1.0       0.6950800462872135  0.8487836040097558  0.1447947277932325 1.0000   
         H         H         1.0       0.6620220377717851  0.8071993614681968  0.10825434740003446          1.0000   
         H         H         1.0       0.589362569687713   0.7453768123669838  0.17563566022809737          1.0000   
         H         H         1.0       0.6212137603956096  0.7819569791959506  0.21415994231449453          1.0000   
         H         H         1.0       0.617316838488222   0.8640401234971525  0.07296161281107662          1.0000   
         H         H         1.0       0.6276762604719187  0.8148874985154451  0.07466993288554342          1.0000   
         H         H         1.0       0.5413090622814007  0.7627157224590566  0.13395087994247115          1.0000   
         H         H         1.0       0.5276974737618477  0.8079983641516172  0.13076393584453772          1.0000   
         H         H         1.0       0.5843015178555779  0.6974491185354565  0.14310396086929536          1.0000   
         H         H         1.0       0.5358865374551565  0.6431626118917161  0.14897000591203693          1.0000   
         H         H         1.0       0.4775574534173822  0.667481692604962   0.08885330343280007          1.0000   
         H         H         1.0       0.5264234849627314  0.7230678834641906  0.0838360722898227 1.0000   
         H         H         1.0       0.5863867443710593  0.7556058984568673  0.04377268032026248          1.0000   
         H         H         1.0       0.6006439475953574  0.7282516984346676  0.006105399751465068         1.0000   
         H         H         1.0       0.6584627346249646  0.7092258877395765  0.06870873837532236          1.0000   
         H         H         1.0       0.6400587935956098  0.7331090580669354  0.11192240047448704          1.0000   
         C         C         1.0       0.5414121281568612  0.7379671116983796  0.22984901150515   1.0000   
         C         C         1.0       0.531570464466703   0.7039186749049443  0.23004592340590416          1.0000   
         C         C         1.0       0.5371075574442081  0.6911650718239438  0.25642814488434945          1.0000   
         C         C         1.0       0.5503392977143465  0.7101136417826116  0.28261400943444753          1.0000   
         C         C         1.0       0.560117533196055   0.7444911994384529  0.27996863477392775          1.0000   
         C         C         1.0       0.5556938773100664  0.7574557806450597  0.254480890310884  1.0000   
         H         H         1.0       0.5208470781513441  0.6863162864627836  0.21013750815360704          1.0000   
         H         H         1.0       0.5303762205441672  0.6639043423313357  0.2570888543944699 1.0000   
         H         H         1.0       0.5722616588958876  0.7623924508763871  0.29938286100208766          1.0000   
         H         H         1.0       0.5614069112521833  0.7828443912053107  0.25513131794412097          1.0000   
         C         C         1.0       0.6170659548663276  0.729051724434568   0.3103031918808692 1.0000   
         C         C         1.0       0.5897064475019828  0.7230239105449179  0.3305727461348749 1.0000   
         C         C         1.0       0.6001379825406241  0.7396693295667144  0.35880601090137865          1.0000   
         C         C         1.0       0.6346899933140429  0.7601053527932674  0.36493728160759686          1.0000   
         C         C         1.0       0.6608191906516577  0.7695792733126239  0.34387331568681245          1.0000   
         C         C         1.0       0.6505478309553504  0.7513194082777749  0.3172338113011353 1.0000   
         C         C         1.0       0.5516599446804082  0.6989378910709919  0.3166952322545747 1.0000   
         C         C         1.0       0.5500483249639192  0.6648887435491668  0.3246691619323997 1.0000   
         C         C         1.0       0.5436146368131797  0.6516499194186322  0.35435179202907036          1.0000   
         C         C         1.0       0.5510785253769334  0.6272786979256574  0.3614485579123621 1.0000   
         C         C         1.0       0.5639979910287105  0.613355247107314   0.3416711007754658 1.0000   
         C         C         1.0       0.5691369089024384  0.6231591785729012  0.31180472808620824          1.0000   
         C         C         1.0       0.5627061060923932  0.6489986697512409  0.30384236084915067          1.0000   
         C         C         1.0       0.5203956196184796  0.7252322377534302  0.346413499833154  1.0000   
         C         C         1.0       0.49238625257225616           0.7230624765326155 0.3631921798479212 1.0000   
         C         C         1.0       0.46048568285078467           0.6925437811986923 0.36422666994535174          1.0000   
         C         C         1.0       0.45605961572657244           0.6666134541169898 0.3436030142481292 1.0000   
         C         C         1.0       0.4839087787747516  0.6689369922331408  0.3273558459792536 1.0000   
         C         C         1.0       0.5174190237041909  0.6971147970526306  0.33228005074626166          1.0000   
         C         C         1.0       0.43186477774844334           0.6850930822490685 0.3889432347636188 1.0000   
         C         C         1.0       0.4676611529832038  0.7360811399439924  0.47949578895675243          1.0000   
         C         C         1.0       0.4365761493963419  0.7285569267252838  0.46643224695592683          1.0000   
         C         C         1.0       0.42697531719916204           0.7140418116438829 0.439743596241202  1.0000   
         C         C         1.0       0.44683291705209177           0.7046900899463954 0.421294076964775  1.0000   
         C         C         1.0       0.4803054253334417  0.7141612239068841  0.4336483750031709 1.0000   
         C         C         1.0       0.48977677827372884           0.7297065061743007 0.462166072836558  1.0000   
         C         C         1.0       0.411845961372795   0.647254624428841   0.40116138457147127          1.0000   
         C         C         1.0       0.42644459689441333           0.6267136998231738 0.4032624655819917 1.0000   
         C         C         1.0       0.4082258514949989  0.5935892633805241  0.4149174375170862 1.0000   
         C         C         1.0       0.3752924908344284  0.5798908659979193  0.426045015403157  1.0000   
         C         C         1.0       0.36005237853467725           0.5994519739181704 0.42678577326906225          1.0000   
         C         C         1.0       0.3780207279701134  0.6326935721589648  0.4151262206399733 1.0000   
         C         C         1.0       0.37534198765680854           0.6746685635751072 0.3602697520037351 1.0000   
         C         C         1.0       0.35389874353629686           0.6872536962550606 0.35319567852562755          1.0000   
         C         C         1.0       0.36646274784638333           0.7226052931277214 0.356172388525514  1.0000   
         C         C         1.0       0.4009739490162703  0.7436399047195009  0.3646920070333786 1.0000   
         C         C         1.0       0.42109652319823976           0.7311704483153212 0.3711152110769221 1.0000   
         C         C         1.0       0.40737374451270075           0.6956671177598263 0.37391773153114966          1.0000   
         H         H         1.0       0.6119129130711237  0.7178621419346451  0.28689258064332623          1.0000   
         H         H         1.0       0.5824876741105289  0.7365993353297412  0.37668242818657877          1.0000   
         H         H         1.0       0.64004725932638    0.7735986367186232  0.38583322394831193          1.0000   
         H         H         1.0       0.6704420706549037  0.7581820332605143  0.30023807221883   1.0000   
         H         H         1.0       0.5330650743145803  0.6616753616294183  0.37159993172654743          1.0000   
         H         H         1.0       0.5463854086523966  0.6177930711938929  0.38428592868757944          1.0000   
         H         H         1.0       0.5836277217135415  0.6135515197836033  0.29913714988340545          1.0000   
         H         H         1.0       0.5733323874502301  0.6601694020368657  0.2811739427616291 1.0000   
         H         H         1.0       0.5446566539989333  0.7491782067994132  0.3453832295773364 1.0000   
         H         H         1.0       0.4956280785165445  0.745120951124802   0.37439322490214766          1.0000   
         H         H         1.0       0.4300476494299245  0.6431154003545289  0.34024939389422865          1.0000   
         H         H         1.0       0.47755992553409704           0.6504507316050164 0.30959653860545705          1.0000   
         H         H         1.0       0.417153287468756   0.7323742861897372  0.4779139867765649 1.0000   
         H         H         1.0       0.4035556963439448  0.7110579950631242  0.43098760155746835          1.0000   
         H         H         1.0       0.4984507106433502  0.7106774167706083  0.42040759915932474          1.0000   
         H         H         1.0       0.5156200563015696  0.7344974803360033  0.46974069914690547          1.0000   
         H         H         1.0       0.4524190677493926  0.6326634859511917  0.3981205627541336 1.0000   
         H         H         1.0       0.4204682366787022  0.5797591939276718  0.41284302371744624          1.0000   
         H         H         1.0       0.3325609599390083  0.5869191424601279  0.4336192755551891 1.0000   
         H         H         1.0       0.3658480208558096  0.6472752009412234  0.4208532575080697 1.0000   
         H         H         1.0       0.36477301926769473           0.6470693192449942 0.35713911966344686          1.0000   
         H         H         1.0       0.3252806775471905  0.6693094242747709  0.34667520123091544          1.0000   
         H         H         1.0       0.4113544177684632  0.7725408933650695  0.3698260869290134 1.0000   
         H         H         1.0       0.4472524775729512  0.749755289278707   0.3779834812992483 1.0000   
         C         C         1.0       0.01637365272230204           0.25759724857454785          0.5890053336664117 1.0000   
         C         C         1.0       0.03417750379896987           0.2535916307498036 0.6121669768374546 1.0000   
         C         C         1.0       0.058650097312013   0.24418382573275085           0.6064549872505749 1.0000   
         C         C         1.0       0.06588198288721742           0.23858694135498784          0.5767844144916212 1.0000   
         C         C         1.0       0.0466991991443947  0.24193495876156115           0.5538060856417018 1.0000   
         C         C         1.0       0.024837675516913755          0.2541726009433038 0.5597775844162444 1.0000   
         H         H         1.0       0.031144662804438207          0.25966741707969915          0.6350295855958978 1.0000   
         H         H         1.0       0.06888036285410466           0.23895334727134981          0.6254651863680829 1.0000   
         H         H         1.0       0.04586028828098576           0.23513636480608052          0.5306985886602424 1.0000   
         H         H         1.0       0.013176107904255385          0.2604352066512158 0.5411033160699733 1.0000   
         C         C         1.0       0.038953259610815305          0.16493371331651904          0.5906902256118456 1.0000   
         C         C         1.0       0.05945309356008766           0.18358814564152437          0.5641674339294209 1.0000   
         C         C         1.0       0.04599259467470524           0.16956444635018025          0.5357265336076263 1.0000   
         C         C         1.0       0.015117684970445744          0.13810143622945267          0.5316308085315772 1.0000   
         C         C         1.0       0.9979550703449154  0.11865659345062189           0.558183440146768  1.0000   
         C         C         1.0       0.010816115985289532          0.1338737036632016 0.5864336379130036 1.0000   
         C         C         1.0       0.08971912334664772           0.22309361235255085          0.5681043316863855 1.0000   
         C         C         1.0       0.11658931247493377           0.2289547757268139 0.5939308995908607 1.0000   
         C         C         1.0       0.1270634156746168  0.20548174542660377           0.6022761857462093 1.0000   
         C         C         1.0       0.15700660839992658           0.21619154509161426          0.6198678731710805 1.0000   
         C         C         1.0       0.17774764878034574           0.24969447418278204          0.626460550703466  1.0000   
         C         C         1.0       0.16883326369854154           0.2726526844559462 0.6197865850847456 1.0000   
         C         C         1.0       0.13885895568117904           0.2636170400078357 0.6034592215599476 1.0000   
         C         C         1.0       0.12181149035839851           0.2653151948487964 0.5249736578511672 1.0000   
         C         C         1.0       0.13885918125108138           0.2744926040477488 0.49644071316738   1.0000   
         C         C         1.0       0.1538091472417201  0.25760636132419035           0.48545173546120934          1.0000   
         C         C         1.0       0.15235183387194196           0.23144182167041963          0.5023553471915366 1.0000   
         C         C         1.0       0.13054832202418434           0.21896961376947294          0.5277204229514113 1.0000   
         C         C         1.0       0.11536175602969802           0.2362693531661485 0.5391891810649193 1.0000   
         C         C         1.0       0.1662324678383874  0.26369454539593984           0.45059737780812864          1.0000   
         C         C         1.0       0.07043926073455785           0.17158191507563633          0.42101613194053694          1.0000   
         C         C         1.0       0.06928565875346816           0.20050186916366772          0.4262561301933376 1.0000   
         C         C         1.0       0.10072765328755298           0.23197349356747213          0.43195659467466113          1.0000   
         C         C         1.0       0.13256827743768798           0.23239157255050594          0.4359639100397856 1.0000   
         C         C         1.0       0.13156817915085572           0.20269404304326796          0.42877032931230624          1.0000   
         C         C         1.0       0.1015872677161863  0.1724394757677161  0.42343174769950354          1.0000   
         C         C         1.0       0.20156869801997718           0.26508519007309855          0.44136613560105675          1.0000   
         C         C         1.0       0.22822761688635965           0.2740940790290899 0.46250645035266513          1.0000   
         C         C         1.0       0.25971682245936734           0.2831255228459455 0.4522379025128698 1.0000   
         C         C         1.0       0.2678855964305532  0.2828696321578466  0.4218788885392544 1.0000   
         C         C         1.0       0.2409969031355493  0.2717079072872616  0.40105136079977244          1.0000   
         C         C         1.0       0.2076631243018914  0.2621018516151552  0.4114778023656023 1.0000   
         C         C         1.0       0.16474037621902898           0.3095514287802703 0.41297228490372107          1.0000   
         C         C         1.0       0.17960238937885536           0.34277977946907384          0.4022423851362428 1.0000   
         C         C         1.0       0.20814516334327365           0.36869350018691904          0.4166594902346393 1.0000   
         C         C         1.0       0.22007538938863178           0.3625476127493961 0.44295361255068866          1.0000   
         C         C         1.0       0.20453453871229169           0.3296239072944184 0.45356421060261026          1.0000   
         C         C         1.0       0.17775913458470832           0.3010773700180269 0.4380105587355775 1.0000   
         H         H         1.0       0.04430958393291573           0.1747939779139036 0.6128719395869061 1.0000   
         H         H         1.0       0.06065954206286985           0.1829835931928578 0.5163049027238148 1.0000   
         H         H         1.0       0.009984256336059039          0.12627317179201017          0.5101664217671471 1.0000   
         H         H         1.0       0.0017792954244195691         0.12002029767394659          0.608045968631139  1.0000   
         H         H         1.0       0.11655706210325548           0.1795886275030835 0.592049211251296  1.0000   
         H         H         1.0       0.16516882859878546           0.19849414913159186          0.6232783504090428 1.0000   
         H         H         1.0       0.18415014124920603           0.29958473495519294          0.6253015933293365 1.0000   
         H         H         1.0       0.13800291416075422           0.2845718167606417 0.5940583127276948 1.0000   
         H         H         1.0       0.11465881811597205           0.2830870887409028 0.5344045443118963 1.0000   
         H         H         1.0       0.1420218452434745  0.2975965478646523  0.48520090602228916          1.0000   
         H         H         1.0       0.1631960525228712  0.21722132425312152           0.4926577324022233 1.0000   
         H         H         1.0       0.12564810799499754           0.19463079942569983          0.5349724717306822 1.0000   
         H         H         1.0       0.04451441252689136           0.19888849028565334          0.42806143727006957          1.0000   
         H         H         1.0       0.10037691644693089           0.25542925753890433          0.43986019699978984          1.0000   
         H         H         1.0       0.15456604522599943           0.20014524616850407          0.43071995056421375          1.0000   
         H         H         1.0       0.10484307543080502           0.15089203655785544          0.41933429199007705          1.0000   
         H         H         1.0       0.22461597760280297           0.2771714668830619 0.4863932507742416 1.0000   
         H         H         1.0       0.2797006462762238  0.29223289241251393           0.4699084651711552 1.0000   
         H         H         1.0       0.24366905240009093           0.26905887930237565          0.37681986357887987          1.0000   
         H         H         1.0       0.1881957064575118  0.2545670814936449  0.3965177679720822 1.0000   
         H         H         1.0       0.14441610046119036           0.290461158792581  0.4010897653205616 1.0000   
         H         H         1.0       0.17076994594216985           0.34390702613074436          0.37964883503105135          1.0000   
         H         H         1.0       0.24528561813461716           0.38372007916110595          0.4535259747692761 1.0000   
         H         H         1.0       0.21289784264515735           0.3228516898017062 0.47451010453790415          1.0000   
         C         C         1.0       0.2821404085153779  0.2663508795740821  0.7688885507328167 1.0000   
         C         C         1.0       0.3124592821159967  0.29641089040090074           0.7786451970692463 1.0000   
         C         C         1.0       0.3419559808759027  0.2950236452397319  0.7840638296237697 1.0000   
         C         C         1.0       0.3426926756026933  0.2648547045625705  0.7810149067098265 1.0000   
         C         C         1.0       0.31181860749568574           0.23558137500328014          0.7734820439107529 1.0000   
         C         C         1.0       0.28231047008815086           0.2357830919410983 0.7688530357033756 1.0000   
         H         H         1.0       0.31283108036585633           0.32048745679875323          0.7810935261729025 1.0000   
         H         H         1.0       0.36556169770480784           0.3193074903903039 0.7898394863446331 1.0000   
         H         H         1.0       0.3108010517359096  0.21253130717046065           0.7693113885962624 1.0000   
         H         H         1.0       0.2589883089092345  0.2125799561226714  0.7626235943016332 1.0000   
         C         C         1.0       0.354315377358468   0.20947470848617034           0.8099582995879315 1.0000   
         C         C         1.0       0.37645173724929687           0.22859506703278334          0.7857018940071157 1.0000   
         C         C         1.0       0.3946279570054586  0.21543709590787224           0.7693484465290638 1.0000   
         C         C         1.0       0.39282499985342495           0.18526514245783737          0.7775692050491594 1.0000   
         C         C         1.0       0.37211730819698274           0.1679738535583853 0.8017321406077323 1.0000   
         C         C         1.0       0.3528074783152686  0.17935736816461934           0.8168234838184885 1.0000   
         C         C         1.0       0.3805780002741602  0.26495124325522756           0.7786525002286273 1.0000   
         C         C         1.0       0.41243919273614044           0.2899887206312774 0.8016859608384111 1.0000   
         C         C         1.0       0.4469618918051989  0.29800661515818305           0.7943280010640067 1.0000   
         C         C         1.0       0.4746092926500464  0.31923563438738867           0.8117949968607443 1.0000   
         C         C         1.0       0.4687248347143038  0.3308421020310351  0.8399195241028603 1.0000   
         C         C         1.0       0.43462509547918865           0.3227350837834905 0.8469771895495175 1.0000   
         C         C         1.0       0.4075267305015739  0.3045268228726302  0.8277301216129973 1.0000   
         C         C         1.0       0.3699977349392182  0.2549861906204205  0.720893971957112  1.0000   
         C         C         1.0       0.3688203186303867  0.2692416939986246  0.6923836597034676 1.0000   
         C         C         1.0       0.38922940920695787           0.3049659903377388 0.6884799724166974 1.0000   
         C         C         1.0       0.41639188451210085           0.3236744685997066 0.7089195505487434 1.0000   
         C         C         1.0       0.41460842397512804           0.3111448620773742 0.7369832710062741 1.0000   
         C         C         1.0       0.391835221109884   0.2772746327352599  0.743431780758614  1.0000   
         C         C         1.0       0.3852025941347424  0.32645362890775875           0.6605824737625432 1.0000   
         C         C         1.0       0.4739832576818304  0.34282245438860914           0.6021393190586982 1.0000   
         C         C         1.0       0.44387187183545834           0.3112268996164883 0.6055515032822993 1.0000   
         C         C         1.0       0.41563933993544483           0.30639748202395367          0.6239004286043625 1.0000   
         C         C         1.0       0.4169702615112398  0.3339796021552955  0.6380331402213337 1.0000   
         C         C         1.0       0.44758506420603383           0.3660169492974323 0.6365789134602113 1.0000   
         C         C         1.0       0.4758410493485437  0.36948494940652465           0.6183156383725761 1.0000   
         C         C         1.0       0.3837273874909223  0.3599468467740132  0.6719543328284857 1.0000   
         C         C         1.0       0.3801111759456014  0.36776751153825754           0.7017560455949875 1.0000   
         C         C         1.0       0.3774548609199165  0.3963511445205731  0.7080365006606385 1.0000   
         C         C         1.0       0.3819507548179302  0.41863133665268776           0.6860078621337458 1.0000   
         C         C         1.0       0.3827368324577999  0.41046179361519464           0.6563506149015855 1.0000   
         C         C         1.0       0.38486115000462245           0.3823844623939799 0.6497890419541922 1.0000   
         C         C         1.0       0.3382720165291996  0.30157123837455146           0.6157882979712982 1.0000   
         C         C         1.0       0.3031766335838094  0.2857116386758107  0.6089079801011845 1.0000   
         C         C         1.0       0.27608924992518624           0.27465380348303803          0.6294692413456461 1.0000   
         C         C         1.0       0.28385932285967724           0.27649261286709714          0.6599973164109068 1.0000   
         C         C         1.0       0.31953672153112617           0.2920165092216638 0.6688655536301774 1.0000   
         C         C         1.0       0.3475980849309274  0.3073932128025704  0.6467795046955738 1.0000   
         H         H         1.0       0.3420298297287654  0.22091714788139177           0.8225464823249742 1.0000   
         H         H         1.0       0.40728535285187817           0.2277575347319304 0.748491853982328  1.0000   
         H         H         1.0       0.40617172704204924           0.17639093280371546          0.7645237254852905 1.0000   
         H         H         1.0       0.33591834521694103           0.16467988288278038          0.8357619610169058 1.0000   
         H         H         1.0       0.45172789014755743           0.2881917426057285 0.7728622155666857 1.0000   
         H         H         1.0       0.5028994886525119  0.32864615652158724           0.8062128166036383 1.0000   
         H         H         1.0       0.4272860833048681  0.33069118664548514           0.8683400110772522 1.0000   
         H         H         1.0       0.38316338464524397           0.3020626467618244 0.8323215491225424 1.0000   
         H         H         1.0       0.3562091748704442  0.22717545117690816           0.7259401870859351 1.0000   
         H         H         1.0       0.35220399272110214           0.2532171340160041 0.6733637205182395 1.0000   
         H         H         1.0       0.43420374783696347           0.34950704836633373          0.7044978992266056 1.0000   
         H         H         1.0       0.4305770995830898  0.32856025279177514           0.7536188116070056 1.0000   
         H         H         1.0       0.4429154056845082  0.2905813172294458  0.5934539875896524 1.0000   
         H         H         1.0       0.3944755975054041  0.2813940988898866  0.6281768922234626 1.0000   
         H         H         1.0       0.4488022245782728  0.38662117827698156           0.6506770781230561 1.0000   
         H         H         1.0       0.5001637277842853  0.3965404871107339  0.6189382906553487 1.0000   
         H         H         1.0       0.3806273820393313  0.3527390413972294  0.7214812041013374 1.0000   
         H         H         1.0       0.37130506939054436           0.40194223077356717          0.7315465476865759 1.0000   
         H         H         1.0       0.38382769740861483           0.4275661265829925 0.6383404269949662 1.0000   
         H         H         1.0       0.3841912518286859  0.3751565560863937  0.6262395225779791 1.0000   
         H         H         1.0       0.35786682336669057           0.3153500223218315 0.598627350963691  1.0000   
         H         H         1.0       0.2996262694486301  0.28356389123763276           0.5841067919964786 1.0000   
         H         H         1.0       0.2663772126722754  0.2691112519266632  0.6797091515935482 1.0000   
         H         H         1.0       0.32297347260972376           0.2923458766964676 0.692807332392541  1.0000   
         C         C         1.0       0.4667605007125383  0.13911546327437294           0.5107999408385645 1.0000   
         C         C         1.0       0.44360846194673337           0.13025453962600855          0.5354265108473463 1.0000   
         C         C         1.0       0.42557667795981646           0.1475735501457605 0.5400268211243832 1.0000   
         C         C         1.0       0.4322541321772733  0.17519085856334493           0.5225662148159004 1.0000   
         C         C         1.0       0.45412397418304007           0.18154375279563129          0.4961091271709968 1.0000   
         C         C         1.0       0.4716033570105182  0.16444754512510687           0.49051473480716673          1.0000   
         H         H         1.0       0.4442824852350134  0.11458935861610078           0.5525363322812559 1.0000   
         H         H         1.0       0.4082705830619127  0.1426403539785249  0.5589158384218416 1.0000   
         H         H         1.0       0.45988873641940015           0.2020297402817375 0.4802156561739191 1.0000   
         H         H         1.0       0.4899847497708167  0.17230368709933586           0.47160743791249815          1.0000   
         C         C         1.0       0.4763580942595885  0.2528823775138676  0.5305426140454678 1.0000   
         C         C         1.0       0.4400158714029912  0.23738846054675877           0.5252658559263857 1.0000   
         C         C         1.0       0.4294066588730779  0.2605365488700594  0.5202667712748256 1.0000   
         C         C         1.0       0.4479356777609073  0.2939145576853755  0.5287968433986251 1.0000   
         C         C         1.0       0.4824004139944103  0.3076466930214294  0.5361243564891729 1.0000   
         C         C         1.0       0.4977442391141813  0.2884963812285782  0.535054901611466  1.0000   
         C         C         1.0       0.41439036891143727           0.1978510429048791 0.5277823083126344 1.0000   
         C         C         1.0       0.40158891276144243           0.19574027706043315          0.5619534300248511 1.0000   
         C         C         1.0       0.3698586569630464  0.1918727295424767  0.5728526912907369 1.0000   
         C         C         1.0       0.3648361026843077  0.1951211673918843  0.603479746043382  1.0000   
         C         C         1.0       0.39108231093634716           0.2034899807782676 0.6240033065900297 1.0000   
         C         C         1.0       0.4225679064035153  0.208841108131461   0.6143655471401238 1.0000   
         C         C         1.0       0.42870481922465525           0.20675306573420896          0.5835852896753625 1.0000   
         C         C         1.0       0.3992858174972426  0.20066835282137946           0.47126994227006236          1.0000   
         C         C         1.0       0.3791957378485605  0.1916293499728476  0.44705343787509544          1.0000   
         C         C         1.0       0.34270969454501277           0.16676726389880434          0.4501792499055193 1.0000   
         C         C         1.0       0.33050816385568804           0.15363304967371463          0.47835176051187195          1.0000   
         C         C         1.0       0.3528543379201583  0.16221082728517347           0.5026269090113813 1.0000   
         C         C         1.0       0.3871772854904939  0.18739645126412405           0.50041188672433   1.0000   
         C         C         1.0       0.3225569857846632  0.15635836082509205           0.4195564289699645 1.0000   
         C         C         1.0       0.32459729070450716           0.2530105571857902 0.41986000777578786          1.0000   
         C         C         1.0       0.34797142988143204           0.24907112913690085          0.4000995067047201 1.0000   
         C         C         1.0       0.34513886983534436           0.21799583204236606          0.3975503931986727 1.0000   
         C         C         1.0       0.32094394481913474           0.19048117963241637          0.4146036306300747 1.0000   
         C         C         1.0       0.2962413799343229  0.19477498244457814           0.43180914064951836          1.0000   
         C         C         1.0       0.29630911014972217           0.2252367902087107 0.4325124609250172 1.0000   
         C         C         1.0       0.2855939279402508  0.12196653082529742           0.41478890827507053          1.0000   
         C         C         1.0       0.2803858620179036  0.09166955660539294           0.42697665970515253          1.0000   
         C         C         1.0       0.24912774493552256           0.06133496424340086          0.4232929628378914 1.0000   
         C         C         1.0       0.22320745504019363           0.06141730710127816          0.40732990459584884          1.0000   
         C         C         1.0       0.2275826750400539  0.09102166046357792           0.39505943991764564          1.0000   
         C         C         1.0       0.25985464620905313           0.12082566774333266          0.39902433736489196          1.0000   
         C         C         1.0       0.33894628426666307           0.15137067023006798          0.3619246252069713 1.0000   
         C         C         1.0       0.35666864538083753           0.14336461244298337          0.34014705896312264          1.0000   
         C         C         1.0       0.3790772793094545  0.1325377507315544  0.3498760108180295 1.0000   
         C         C         1.0       0.3861214951158955  0.13211391825774524           0.3795636778661095 1.0000   
         C         C         1.0       0.36704373411116875           0.13819270165552933          0.4011535925953511 1.0000   
         C         C         1.0       0.34181341459565845           0.14706606297735053          0.3933770096105193 1.0000   
         H         H         1.0       0.48869226970173407           0.23717154270916305          0.5337735883760896 1.0000   
         H         H         1.0       0.40151636919089995           0.2500271576514223 0.5143033013247592 1.0000   
         H         H         1.0       0.43598183958141673           0.31013782994625344          0.5297733955979337 1.0000   
         H         H         1.0       0.5260117798800177  0.29917598331496364           0.5392751713917281 1.0000   
         H         H         1.0       0.35042308804238215           0.18888582227183645          0.5578416447779196 1.0000   
         H         H         1.0       0.3398467611146964  0.19091246637019024           0.6124348922268521 1.0000   
         H         H         1.0       0.44304388878135753           0.21708642415461504          0.6297625992335265 1.0000   
         H         H         1.0       0.4518514513343649  0.20559125637113806           0.5760154636856996 1.0000   
         H         H         1.0       0.42774586334775616           0.217376649308054  0.4679017231941369 1.0000   
         H         H         1.0       0.3898635850707513  0.20287580180753897           0.42566737975006574          1.0000   
         H         H         1.0       0.30342507265616997           0.13340991803362873          0.47965672958940414          1.0000   
         H         H         1.0       0.34226599957873277           0.14876578335542368          0.5235123082620308 1.0000   
         H         H         1.0       0.3675000102828807  0.2697112991875571  0.38597556035605307          1.0000   
         H         H         1.0       0.3655155103295441  0.21630112515293412           0.3842724940097266 1.0000   
         H         H         1.0       0.278622594533528   0.17466877106144124           0.44667118575671133          1.0000   
         H         H         1.0       0.2773754731597866  0.22601482251607896           0.4488379258064559 1.0000   
         H         H         1.0       0.3015809721737496  0.08941315566734792           0.4363252071509574 1.0000   
         H         H         1.0       0.24713021408830388           0.037709636439876126         0.4288667129733432 1.0000   
         H         H         1.0       0.206851322972815   0.09081127651051688           0.3819814054867782 1.0000   
         H         H         1.0       0.26568400021885347           0.1449068328370087 0.38736926114286546          1.0000   
         H         H         1.0       0.32453612206107846           0.16313737930528094          0.35449613525738977          1.0000   
         H         H         1.0       0.3525570665582803  0.14518315299443882           0.31745763691811985          1.0000   
         H         H         1.0       0.40333969404454434           0.12200142033119891          0.38400209986435935          1.0000   
         H         H         1.0       0.367641688677069   0.12855301212877732           0.42358363350217165          1.0000   
         C         C         1.0       0.06587713519027957           0.060563356354438505         0.8214200924082065 1.0000   
         C         C         1.0       0.03507835431910644           0.05957750387020857          0.8144344405482712 1.0000   
         C         C         1.0       0.0356792802006789  0.08636977297597193           0.7986705648817443 1.0000   
         C         C         1.0       0.06712882755937637           0.11288933209206171          0.7875910616260031 1.0000   
         C         C         1.0       0.0981429968371614  0.11225241096654197           0.7926320152235873 1.0000   
         C         C         1.0       0.09702046048918012           0.08678813924690815          0.8096844136483184 1.0000   
         H         H         1.0       0.00973445859847022           0.04045803355656741          0.8256855256907712 1.0000   
         H         H         1.0       0.011964608361451745          0.08776797623156522          0.7948763475989964 1.0000   
         H         H         1.0       0.12264766471754718           0.1282980478292586 0.7814719183617694 1.0000   
         H         H         1.0       0.12096229701841726           0.08522573428446821          0.8116104679480212 1.0000   
         C         C         1.0       0.12808467880434424           0.1925216809471283 0.7844085314858872 1.0000   
         C         C         1.0       0.10697021953659522           0.1734036202901175 0.7600559356387036 1.0000   
         C         C         1.0       0.12323125689202884           0.1825674387485265 0.7315466280014489 1.0000   
         C         C         1.0       0.15841958666253095           0.20478238118178138          0.7273086339083196 1.0000   
         C         C         1.0       0.1784822766696927  0.22412130099954783           0.7519338597454253 1.0000   
         C         C         1.0       0.1622081956517398  0.21810686483816993           0.7802196109130416 1.0000   
         C         C         1.0       0.06681984910620294           0.14042624560847716          0.7656497532397963 1.0000   
         C         C         1.0       0.04938832087488709           0.16223093154712923          0.7782540341705745 1.0000   
         C         C         1.0       0.04051519452047403           0.17974788281370258          0.7585623274085443 1.0000   
         C         C         1.0       0.027092395191986807          0.19892759370644883          0.7707139558532499 1.0000   
         C         C         1.0       0.020404302511961347          0.198667963404446  0.8015240881330258 1.0000   
         C         C         1.0       0.027344297653895788          0.18012131987222604          0.8207664013541834 1.0000   
         C         C         1.0       0.04336709662678517           0.16339095714790128          0.809905813929275  1.0000   
         C         C         1.0       0.05718571449569875           0.09782235543368281          0.7213641436566368 1.0000   
         C         C         1.0       0.03494561597456504           0.06853545341906854          0.7053884775764954 1.0000   
         C         C         1.0       0.9988075179493492  0.054566229208173694         0.705226675576248  1.0000   
         C         C         1.0       0.9870060293864367  0.07410318566785619           0.7167714505173566 1.0000   
         C         C         1.0       0.008018043751636839          0.10343070810447534          0.7333159469474727 1.0000   
         C         C         1.0       0.04359882472324483           0.11543858537055027          0.7373866971696178 1.0000   
         C         C         1.0       0.9703977736024103  0.015788787485365052         0.6930602222058765 1.0000   
         C         C         1.0       0.9716783506220966  0.04475946725077098           0.598754434439856  1.0000   
         C         C         1.0       0.9982455443230792  0.04050508601218703           0.609743340160195  1.0000   
         C         C         1.0       0.9960284206637325  0.029631078061740247         0.6384745074275869 1.0000   
         C         C         1.0       0.9688331607353777  0.023516452367422724         0.6576098113525587 1.0000   
         C         C         1.0       0.942753385877999   0.028126729862884198         0.6468797968157626 1.0000   
         C         C         1.0       0.9442928341740288  0.038516011175796235         0.6175035922462786 1.0000   
         C         C         1.0       0.9316765138981216  0.9918724065828095  0.7060278663223428 1.0000   
         C         C         1.0       0.9221165527129329  0.9950198618454196  0.7353154733658473 1.0000   
         C         C         1.0       0.8907116616256677  0.9722073077685331  0.7479695077229176 1.0000   
         C         C         1.0       0.8666440308065848  0.9422613112970969  0.7315947636949689 1.0000   
         C         C         1.0       0.8747432146273479  0.9395090023962954  0.7007313305838359 1.0000   
         C         C         1.0       0.906892539575733   0.9631568561053975  0.6895909943762707 1.0000   
         C         C         1.0       0.9842866058646682  0.9675315736336862  0.6819078625721456 1.0000   
         C         C         1.0       0.9988937424013449  0.948195242031533   0.6888200634845473 1.0000   
         C         C         1.0       0.016122360392481622          0.9528497036093574 0.7158342890631049 1.0000   
         C         C         1.0       0.013490381112498324          0.9744527513571006 0.7370109784647125 1.0000   
         C         C         1.0       0.999171195380459   0.9940786996966543  0.7302675250625736 1.0000   
         C         C         1.0       0.9860456322767901  0.9931531509537861  0.7014796770153673 1.0000   
         H         H         1.0       0.11629912849391727           0.18604920037181388          0.8068758756328726 1.0000   
         H         H         1.0       0.10830969881884692           0.1687465216868829 0.7118811684074612 1.0000   
         H         H         1.0       0.1685832967523504  0.20910066857179255           0.7043584686985186 1.0000   
         H         H         1.0       0.17693962315538428           0.23396144949225137          0.7983408676461796 1.0000   
         H         H         1.0       0.051724079782862864          0.1826836987512263 0.734676778827879  1.0000   
         H         H         1.0       0.02303131432706018           0.21748426249760017          0.7577579854926038 1.0000   
         H         H         1.0       0.020748482150329428          0.17939786301669   0.8447401574392991 1.0000   
         H         H         1.0       0.04916639859790295           0.14962126194361972          0.8258855462374912 1.0000   
         H         H         1.0       0.08370909876780189           0.10474789855056736          0.7238109671645253 1.0000   
         H         H         1.0       0.04830310862380046           0.0570244417794743 0.6959961574075805 1.0000   
         H         H         1.0       0.9587846034156234  0.06558145777773522           0.7128728298315701 1.0000   
         H         H         1.0       0.9935177883329441  0.113111556637345   0.7473774451920238 1.0000   
         H         H         1.0       0.01746852338906768           0.04135405122224244          0.5946681251192018 1.0000   
         H         H         1.0       0.020204127228878634          0.03047099490390616          0.6451592782002873 1.0000   
         H         H         1.0       0.9192888456857273  0.021250483611221727         0.6604516791410806 1.0000   
         H         H         1.0       0.9233712116674161  0.040647477229951365         0.6091310207271174 1.0000   
         H         H         1.0       0.9409582843633587  0.016642719874035317         0.7498643021902901 1.0000   
         H         H         1.0       0.8893245573624374  0.979218713814176   0.7702244584780377 1.0000   
         H         H         1.0       0.8585422013119142  0.9153709731384914  0.6899958736201844 1.0000   
         H         H         1.0       0.9116395897730099  0.9592761706438107  0.6657120685105661 1.0000   
         H         H         1.0       0.9703032861422463  0.9625299380208069  0.661224646366719  1.0000   
         H         H         1.0       0.9959099182998413  0.92870299333827    0.672991380065746  1.0000   
         H         H         1.0       0.027241590966004654          0.9789729880207784 0.7587322353746087 1.0000   
         H         H         1.0       0.998987033081806   0.011872019981563176         0.7473115298748775 1.0000   
         C         C         1.0       0.9973430315835691  0.8311525037936369  0.5862268427752511 1.0000   
         C         C         1.0       0.9883358627484863  0.8544430618680393  0.5958560833177261 1.0000   
         C         C         1.0       0.012139722328110558          0.8893241889473051 0.5895579476877117 1.0000   
         C         C         1.0       0.04712754558134158           0.9015547893425122 0.5799645242222399 1.0000   
         C         C         1.0       0.05739313639202126           0.8768215435542873 0.5772930330917941 1.0000   
         C         C         1.0       0.03150836285724279           0.8424035997750424 0.5776447907698551 1.0000   
         H         H         1.0       0.9635751977368543  0.8449263660073727  0.6045260511395649 1.0000   
         H         H         1.0       0.002965718469043921          0.9062889521908344 0.5901940499841256 1.0000   
         H         H         1.0       0.08383988095892358           0.8831799023212433 0.5722851603674538 1.0000   
         H         H         1.0       0.035620122232478124          0.8215061351722135 0.5718523942756244 1.0000   
         C         C         1.0       0.14261670386241126           0.9807220134934671 0.5724255188660342 1.0000   
         C         C         1.0       0.11266315696038812           0.9538380814389187 0.5586848630827208 1.0000   
         C         C         1.0       0.11744120138465426           0.9381586066332054 0.5330636098070137 1.0000   
         C         C         1.0       0.14989735712062252           0.945209608248351  0.5249191270476056 1.0000   
         C         C         1.0       0.17810602973650302           0.9660252243361439 0.5437133602419734 1.0000   
         C         C         1.0       0.1743813005003157  0.9851464774677976  0.5653257990891162 1.0000   
         C         C         1.0       0.07485857664837506           0.94188207473201   0.5743131449992563 1.0000   
         C         C         1.0       0.07803020102524992           0.9527359432577855 0.6098245945089548 1.0000   
         C         C         1.0       0.06764317715457846           0.9748315753324479 0.621871224583232  1.0000   
         C         C         1.0       0.07199639397659664           0.9830456243767856 0.6521412957566433 1.0000   
         C         C         1.0       0.08346915943800307           0.966587816072401  0.6718056163653167 1.0000   
         C         C         1.0       0.09370504833414972           0.9464302304324601 0.6596107093503815 1.0000   
         C         C         1.0       0.09361627866516053           0.941442449129064  0.6295446796682422 1.0000   
         C         C         1.0       0.04327442373081914           0.9399493241411865 0.5270216949232945 1.0000   
         C         C         1.0       0.03552374703889827           0.9535014174558213 0.5034137854881653 1.0000   
         C         C         1.0       0.04897519374629696           0.9886437502266349 0.5002046012406108 1.0000   
         C         C         1.0       0.06900797569849013           0.009120084310545673         0.524265976822045  1.0000   
         C         C         1.0       0.07481173545357848           0.994955985934016  0.5498337695960945 1.0000   
         C         C         1.0       0.06386794056199446           0.9602740786085229 0.5506018990349838 1.0000   
         C         C         1.0       0.049648525188542375          0.003310730137156659         0.4668486512837291 1.0000   
         C         C         1.0       0.1407616193271904  0.004544077839051974         0.4302819966227856 1.0000   
         C         C         1.0       0.10799144171753822           0.9748322344579091 0.42906981780706305          1.0000   
         C         C         1.0       0.07984043468436494           0.9748722753860601 0.44112595261181925          1.0000   
         C         C         1.0       0.08333479843758637           0.005622091892786285         0.45220982648859487          1.0000   
         C         C         1.0       0.11522937022943404           0.035311722542932245         0.45210164229029237          1.0000   
         C         C         1.0       0.14457898055967425           0.034774666124230746         0.44086841366618384          1.0000   
         C         C         1.0       0.05308159210776919           0.03960031836986255          0.46409145318364475          1.0000   
         C         C         1.0       0.03690075100552037           0.050410666943854654         0.4857635655972652 1.0000   
         C         C         1.0       0.03209623079816604           0.07736195695168653          0.47859663520322065          1.0000   
         C         C         1.0       0.03520661282578308           0.08851440208490684          0.44886242613737426          1.0000   
         C         C         1.0       0.04962003953555863           0.07729867357778088          0.42656544440024297          1.0000   
         C         C         1.0       0.05818247820804732           0.05278557931761663          0.43543658760341175          1.0000   
         C         C         1.0       0.010050875659866287          0.9688730488968397 0.42187263331019614          1.0000   
         C         C         1.0       0.9790029546471192  0.9540085912506525  0.4049048840163901 1.0000   
         C         C         1.0       0.9491119978269741  0.9468733238799227  0.4191664504901719 1.0000   
         C         C         1.0       0.9492713724105392  0.9531959015962483  0.44925698075231374          1.0000   
         C         C         1.0       0.9803339461711453  0.9687769906352286  0.46599972707241666          1.0000   
         C         C         1.0       0.01127877654944176           0.9783190123953546 0.45146823359223165          1.0000   
         H         H         1.0       0.14025177236545527           0.9964400506949423 0.5893627530779698 1.0000   
         H         H         1.0       0.09588612623789201           0.9202324715547151 0.5184335210739125 1.0000   
         H         H         1.0       0.15184023030930213           0.9312659707768894 0.5048931030824162 1.0000   
         H         H         1.0       0.19410847101658463           0.0019140291186534597        0.5798222687426104 1.0000   
         H         H         1.0       0.05969064154495237           0.9877022942285604 0.6071824725926922 1.0000   
         H         H         1.0       0.06100607547774386           0.9973956681084725 0.662079000307822  1.0000   
         H         H         1.0       0.10829821933814    0.9373865428131648  0.672987559555646  1.0000   
         H         H         1.0       0.10717004676731141           0.9288526413092835 0.6195393105912687 1.0000   
         H         H         1.0       0.034374663401261794          0.9127699450322707 0.525902171176019  1.0000   
         H         H         1.0       0.01805897316359073           0.9358104449092834 0.4869600350263826 1.0000   
         H         H         1.0       0.08522848160568745           0.03778969651242603          0.5202533978086389 1.0000   
         H         H         1.0       0.0946103776689055  0.013944572100205166         0.5654635398957091 1.0000   
         H         H         1.0       0.10419742814974393           0.9509661306913387 0.42229318989401204          1.0000   
         H         H         1.0       0.05691693289194721           0.9492472847120548 0.4458664190423471 1.0000   
         H         H         1.0       0.11958944199766279           0.05899721324463303          0.461295063798608  1.0000   
         H         H         1.0       0.17129438751805123           0.05486299749934953          0.4454645400334336 1.0000   
         H         H         1.0       0.031872553935482495          0.03976026789758058          0.5084248838336966 1.0000   
         H         H         1.0       0.018375954364775016          0.08461299610908755          0.4941645985583926 1.0000   
         H         H         1.0       0.05233879859275962           0.0838475944382513 0.4036815556639661 1.0000   
         H         H         1.0       0.06606209728815543           0.043123042743289375         0.41704369272431846          1.0000   
         H         H         1.0       0.0345460098992485  0.9750198746686207  0.41024092711785176          1.0000   
         H         H         1.0       0.9807178034841697  0.9510009985299324  0.38048794291582627          1.0000   
         H         H         1.0       0.926268998024839   0.9498469242743162  0.46096312075949875          1.0000   
         H         H         1.0       0.9808163752470089  0.9785162983537287  0.4894027804800756 1.0000   
         C         C         1.0       0.3115949274529244  0.07813026774813842           0.7924859299056027 1.0000   
         C         C         1.0       0.2966265291072398  0.04341836648132141           0.7933074798527099 1.0000   
         C         C         1.0       0.2610956500890814  0.022379453846933517         0.7931153384779491 1.0000   
         C         C         1.0       0.23929753480353458           0.03507384176081712          0.7882764372870067 1.0000   
         C         C         1.0       0.2542469578256506  0.07028857232810572           0.7909596097694954 1.0000   
         C         C         1.0       0.28980272506335497           0.09192999677476862          0.7934829035659928 1.0000   
         H         H         1.0       0.31061431695729314           0.029656905453356572         0.7924072933925421 1.0000   
         H         H         1.0       0.2540193373648574  0.996435204584762   0.794923134161998  1.0000   
         H         H         1.0       0.23518086258205018           0.07797768381424974          0.7897801455421425 1.0000   
         H         H         1.0       0.30170345406731375           0.11791333172108066          0.7922273326581416 1.0000   
         C         C         1.0       0.17039064685020713           0.029906226537456337         0.8135331819655637 1.0000   
         C         C         1.0       0.1739455287721676  0.021708758072403578         0.783648744855926  1.0000   
         C         C         1.0       0.14545042043190326           0.012632010251617753         0.7643048697133551 1.0000   
         C         C         1.0       0.11714420780067294           0.014923579499959594         0.7745297099666826 1.0000   
         C         C         1.0       0.1136017386358519  0.01896882480200146           0.8049795022437938 1.0000   
         C         C         1.0       0.14231366677025778           0.031762004480677675         0.8229038813269236 1.0000   
         C         C         1.0       0.20138563089825795           0.00975987127785527          0.7744321801044506 1.0000   
         C         C         1.0       0.18147610600819017           0.9723449556510223 0.7896722263960336 1.0000   
         C         C         1.0       0.15398069577575266           0.945860423199046  0.7721367611985984 1.0000   
         C         C         1.0       0.13281883194294292           0.9139033701266184 0.7847555966169832 1.0000   
         C         C         1.0       0.13882830938611448           0.908281430244383  0.8146947627649288 1.0000   
         C         C         1.0       0.16409214859894877           0.9341589075337408 0.830932235131482  1.0000   
         C         C         1.0       0.18543243361613837           0.9661237596697111 0.8195179960882737 1.0000   
         C         C         1.0       0.2235360672795165  0.04220419008766574           0.7228176016846364 1.0000   
         C         C         1.0       0.24710817105380592           0.05126839588425183          0.6993883524231662 1.0000   
         C         C         1.0       0.2615414465775773  0.03071273957732301           0.6921274527781488 1.0000   
         C         C         1.0       0.2434281585888738  0.9971603143828364  0.7040760243028416 1.0000   
         C         C         1.0       0.2213658321470288  0.988686865813017   0.7277136075206522 1.0000   
         C         C         1.0       0.21197529249654035           0.011734974236390139         0.7393689553838614 1.0000   
         C         C         1.0       0.2961722075052519  0.0413343044261357  0.673728318744797  1.0000   
         C         C         1.0       0.2564190852414269  0.007841942303689509         0.5803919495048973 1.0000   
         C         C         1.0       0.26387104615644935           0.038953589133474686         0.5925684078624891 1.0000   
         C         C         1.0       0.2775211740212349  0.04983951649847107           0.62131045372472   1.0000   
         C         C         1.0       0.2834026649081769  0.028415007333919995         0.6396510346392564 1.0000   
         C         C         1.0       0.2719321180220943  0.9948411624684517  0.6292366466847102 1.0000   
         C         C         1.0       0.2622739842704666  0.9867531453937064  0.598696404768901  1.0000   
         C         C         1.0       0.3195357502921075  0.02645911015821861           0.6878915282202884 1.0000   
         C         C         1.0       0.32324350844657673           0.02987681054505257          0.7191782417260072 1.0000   
         C         C         1.0       0.34208274220591717           0.017332020580101526         0.7330761038649758 1.0000   
         C         C         1.0       0.35909782188529654           0.0035839728035362835        0.7164640806151078 1.0000   
         C         C         1.0       0.35905938814876914           0.0064427022027377925        0.6856140797227385 1.0000   
         C         C         1.0       0.33857913200979595           0.016583020526202086         0.6708962970933936 1.0000   
         C         C         1.0       0.35100886431049844           0.09679494053967795          0.6546883260441329 1.0000   
         C         C         1.0       0.37582563996824586           0.13065376127351092          0.6560920752114056 1.0000   
         C         C         1.0       0.3763784704564016  0.15213536076917544           0.6782173303728832 1.0000   
         C         C         1.0       0.35416609386800324           0.1375671587313626 0.7026634412365039 1.0000   
         C         C         1.0       0.32957329116690043           0.10168421709786257          0.7014345046392076 1.0000   
         C         C         1.0       0.32529162632002406           0.08185648619381537          0.6760994784593058 1.0000   
         H         H         1.0       0.18975255659470777           0.03652932475243098          0.8306416836573912 1.0000   
         H         H         1.0       0.14648725753237646           0.007157052777815531         0.7409157978163448 1.0000   
         H         H         1.0       0.09559445240814864           0.008349189311152916         0.7582306560148551 1.0000   
         H         H         1.0       0.13835881343153864           0.0360514157648999 0.8466200317904518 1.0000   
         H         H         1.0       0.14514156592017552           0.9499826396213736 0.7494731233945827 1.0000   
         H         H         1.0       0.10824174099502594           0.8929835570359521 0.7727148082667615 1.0000   
         H         H         1.0       0.16688381386618464           0.9300480522646587 0.8544795364041036 1.0000   
         H         H         1.0       0.20466943024950232           0.9848816314023487 0.8350786982239268 1.0000   
         H         H         1.0       0.21719033370981217           0.06163299593271344          0.7295797168750523 1.0000   
         H         H         1.0       0.2566848985316821  0.0761792742285602  0.6891525876247336 1.0000   
         H         H         1.0       0.24628317709777012           0.9755281127664889 0.6966497693203949 1.0000   
         H         H         1.0       0.20808241767020813           0.962841508026979  0.7370962250287785 1.0000   
         H         H         1.0       0.26055725173335603           0.05696213662887195          0.5795706508360006 1.0000   
         H         H         1.0       0.28575064986357823           0.07602253889744981          0.6272416793610364 1.0000   
         H         H         1.0       0.2713095768768844  0.974407498394261   0.6444739501632364 1.0000   
         H         H         1.0       0.25419473098131645           0.9613886426040072 0.5899724066767027 1.0000   
         H         H         1.0       0.3104301815022315  0.04056203409095265           0.7317857268143968 1.0000   
         H         H         1.0       0.3413320828735281  0.014730360674880537         0.7580018619367658 1.0000   
         H         H         1.0       0.3704431027789822  0.9953707315686264  0.6711483456278725 1.0000   
         H         H         1.0       0.33808442626809687           0.01732311745981252          0.6453843171652845 1.0000   
         H         H         1.0       0.35398828491696    0.08275387100190633           0.6364714321067049 1.0000   
         H         H         1.0       0.3935536420150812  0.1430856067318178  0.6367844080409678 1.0000   
         H         H         1.0       0.35712128404769333           0.15310838864432277          0.7234636421089664 1.0000   
         H         H         1.0       0.3129840259593673  0.08962479356124718           0.7209119883457956 1.0000   
         C         C         1.0       0.08164853013172291           0.06163527857085449          0.9257444359123996 1.0000   
         C         C         1.0       0.06042397332770507           0.02746979749076872          0.916407088084616  1.0000   
         C         C         1.0       0.07173223431576582           0.004416681065560368         0.919770872532135  1.0000   
         C         C         1.0       0.10369237927744622           0.014793869283288963         0.9310490693381487 1.0000   
         C         C         1.0       0.12301625016976778           0.04787384753550539          0.9425816204928441 1.0000   
         C         C         1.0       0.11167981650446179           0.07049458466641832          0.9404598457469489 1.0000   
         H         H         1.0       0.03408394658235503           0.017698128851254102         0.9068369886028971 1.0000   
         H         H         1.0       0.051876126894680595          0.977095879863989  0.915517731065463  1.0000   
         H         H         1.0       0.14754722285455915           0.056440005746244984         0.9526252680699614 1.0000   
         H         H         1.0       0.12969360633622232           0.09689580353269348          0.9474134047533075 1.0000   
         C         C         1.0       0.1754540928776261  0.029464932367208485         0.9065945619774196 1.0000   
         C         C         1.0       0.16019966533371027           0.008247097398942138         0.9323378400188166 1.0000   
         C         C         1.0       0.18077935346301674           0.003864084797315037         0.9525232366886608 1.0000   
         C         C         1.0       0.21697146133850206           0.020542300934333513         0.9463664572113722 1.0000   
         C         C         1.0       0.23140335114179697           0.040225913792952615         0.9212838333740808 1.0000   
         C         C         1.0       0.21126083603768817           0.04764468403234835          0.9029863083546472 1.0000   
         C         C         1.0       0.11839716595313544           0.9893476882572549 0.9351425701840353 1.0000   
         C         C         1.0       0.10855764454210981           0.9605314443614096 0.909353917613007  1.0000   
         C         C         1.0       0.11272668069468827           0.9327485943057265 0.9150311785603904 1.0000   
         C         C         1.0       0.10314372043689334           0.9075732719415077 0.8947668674190652 1.0000   
         C         C         1.0       0.09149942689782824           0.9090195646863194 0.8671310564748954 1.0000   
         C         C         1.0       0.08963223832560831           0.9375648286964945 0.8588074369008142 1.0000   
         C         C         1.0       0.10060981306872978           0.9636828335553909 0.879871740567285  1.0000   
         C         C         1.0       0.1145898017322775  0.9876997279381603  0.9955442421443352 1.0000   
         C         C         1.0       0.1007639352217173  0.9696697455368507  0.02256557606014442          1.0000   
         C         C         1.0       0.07403651260654472           0.9345235428444889 0.02407917785734659          1.0000   
         C         C         1.0       0.06077425435958683           0.9201663357273456 0.9958949223735167 1.0000   
         C         C         1.0       0.0710776336738268  0.9382726574014454  0.9699873923846916 1.0000   
         C         C         1.0       0.10036112976657512           0.9710656875971446 0.967786421604679  1.0000   
         C         C         1.0       0.0632867879830661  0.9117850798560053  0.054038506299833776         1.0000   
         C         C         1.0       0.13749415454913252           0.8762016098339743 0.05178817283331807          1.0000   
         C         C         1.0       0.14893585393845427           0.9107054897083604 0.0580470124948431 1.0000   
         C         C         1.0       0.1279622784058878  0.9232075032122036  0.05462835233907203          1.0000   
         C         C         1.0       0.09275893525068905           0.9012620366882715 0.048298892400551796         1.0000   
         C         C         1.0       0.08182780248358029           0.8680713016229245 0.04118455747486376          1.0000   
         C         C         1.0       0.10440040781514187           0.8557436877022919 0.04168170824058709          1.0000   
         C         C         1.0       0.021253295068072806          0.8794585337066009 0.05556310083281123          1.0000   
         C         C         1.0       0.9951420692950818  0.8786662869392661  0.039457912943089646         1.0000   
         C         C         1.0       0.9614291325689014  0.8499476420923814  0.04075551284644119          1.0000   
         C         C         1.0       0.9527606114305432  0.8225606406873881  0.061366761638044075         1.0000   
         C         C         1.0       0.978730606022868   0.8255728231321129  0.07890334618314701          1.0000   
         C         C         1.0       0.01124113675224514           0.8530532956204038 0.07601092854467732          1.0000   
         C         C         1.0       0.07890302221597152           0.9234140946710667 0.10903210009851633          1.0000   
         C         C         1.0       0.07159531965367373           0.9300108174713737 0.13651882339348098          1.0000   
         C         C         1.0       0.0537299129154134  0.9470211632092985  0.14104506399026576          1.0000   
         C         C         1.0       0.04207808353949494           0.9561396929338066 0.11560715084042411          1.0000   
         C         C         1.0       0.053258713331084395          0.9521318600960325 0.08703168364767022          1.0000   
         C         C         1.0       0.06837571697512039           0.9321638045123017 0.08353667266865555          1.0000   
         H         H         1.0       0.16382974805994452           0.03798366492298744          0.8902464311275705 1.0000   
         H         H         1.0       0.16902381476105063           0.9890663902800632 0.9742528942169323 1.0000   
         H         H         1.0       0.23269179135010906           0.014560977197768166         0.9616869254388869 1.0000   
         H         H         1.0       0.22222371101131738           0.06687531061034777          0.8866138898342155 1.0000   
         H         H         1.0       0.11924439278536787           0.9275738199697657 0.9373080347874884 1.0000   
         H         H         1.0       0.10496347846939896           0.8857789925009845 0.9010493702006196 1.0000   
         H         H         1.0       0.07987982656321135           0.9377685003779784 0.8368257344312885 1.0000   
         H         H         1.0       0.1007087561058634  0.9866936711546823  0.8741574207774582 1.0000   
         H         H         1.0       0.13573479723364837           0.012624739255409745         0.9937464977628229 1.0000   
         H         H         1.0       0.11300615470359704           0.9827993286382303 0.04330992611431098          1.0000   
         H         H         1.0       0.04221555113671459           0.8928764163988998 0.9947388514617482 1.0000   
         H         H         1.0       0.057991599111901077          0.9242575704818584 0.9495343916089869 1.0000   
         H         H         1.0       0.17376918510910158           0.9286989939835613 0.06810973087839398          1.0000   
         H         H         1.0       0.13691549484453674           0.9488743029179699 0.06173550389875097          1.0000   
         H         H         1.0       0.055055313377936566          0.8517476930298034 0.035955719514751946         1.0000   
         H         H         1.0       0.09214574396584095           0.8276760206589258 0.038243985288507316         1.0000   
         H         H         1.0       0.001875378501165148          0.9003959311027049 0.024599309819826942         1.0000   
         H         H         1.0       0.9424694064050559  0.8480279749388812  0.02433365835301915          1.0000   
         H         H         1.0       0.9734172539015783  0.8075125419705304  0.09724968026472415          1.0000   
         H         H         1.0       0.028276525514695543          0.8531721091336241 0.0927882686435081 1.0000   
         H         H         1.0       0.0895062478433734  0.9068562179826188  0.10838465143148622          1.0000   
         H         H         1.0       0.08171430594195761           0.9241662801986671 0.15692419343748654          1.0000   
         H         H         1.0       0.028170243013851515          0.9689789563047251 0.11922834508615303          1.0000   
         H         H         1.0       0.04258088707765364           0.9586432111642229 0.06870279878111814          1.0000   
         C         C         1.0       0.3435289771195031  0.04654694965298822           0.1542495071115116 1.0000   
         C         C         1.0       0.32737968979290105           0.06382707174716863          0.14457684406452742          1.0000   
         C         C         1.0       0.2917495139255691  0.04839190927170404           0.14525513422454694          1.0000   
         C         C         1.0       0.2721342265642221  0.01468782870113805           0.15396077985675313          1.0000   
         C         C         1.0       0.2885074387409414  0.9971133690633961  0.16446122707920155          1.0000   
         C         C         1.0       0.32479984725184524           0.015593372817421569         0.16625117042397902          1.0000   
         H         H         1.0       0.344234843863371   0.08900971483009786           0.13485111101023267          1.0000   
         H         H         1.0       0.2811244044627315  0.06171577438699379           0.1351496037438687 1.0000   
         H         H         1.0       0.2735281578315129  0.9708838609635736  0.17364158650350747          1.0000   
         H         H         1.0       0.3370008320467956  0.00064620766396839           0.17262725128423143          1.0000   
         C         C         1.0       0.23205776770840317           0.9487846682252361 0.11631486987311748          1.0000   
         C         C         1.0       0.21553553094935723           0.9548866777494893 0.14029661071654695          1.0000   
         C         C         1.0       0.18332885829741952           0.9288305402060493 0.15175575098415425          1.0000   
         C         C         1.0       0.16482667714780533           0.8966194963182954 0.13809552029096267          1.0000   
         C         C         1.0       0.18131804089733494           0.8896100089302148 0.11415984258627572          1.0000   
         C         C         1.0       0.21493155259415908           0.9158318319888683 0.10482214529172028          1.0000   
         C         C         1.0       0.22927724815354034           0.9930100398917472 0.15229354298446532          1.0000   
         C         C         1.0       0.20922320077103787           0.004672239944609746         0.12873323818168664          1.0000   
         C         C         1.0       0.17626209372353385           7.856360570546173e-06        0.13612472872768513          1.0000   
         C         C         1.0       0.1593822542562871  0.00901591676445146           0.11626481770648782          1.0000   
         C         C         1.0       0.17615063769760267           0.02674550811735815          0.09019060841100608          1.0000   
         C         C         1.0       0.20666909691252996           0.02814687233720821          0.08148318636236533          1.0000   
         C         C         1.0       0.22338553955444082           0.0166936785330134 0.10033092541087202          1.0000   
         C         C         1.0       0.22471658101354228           0.9820725996026306 0.20999429921869253          1.0000   
         C         C         1.0       0.22618561169143944           0.9937492470397278 0.23964239491650932          1.0000   
         C         C         1.0       0.22964960428956083           0.026607720284193004         0.24584275378521955          1.0000   
         C         C         1.0       0.22516731729735942           0.042924440523955734         0.22202662308394588          1.0000   
         C         C         1.0       0.22277834071106228           0.03158741227942685          0.19285419484928054          1.0000   
         C         C         1.0       0.2234641891183238  0.0014978301140713413        0.18584349689614668          1.0000   
         C         C         1.0       0.23818975945711826           0.04136182038505037          0.2790901101169934 1.0000   
         C         C         1.0       0.13492822356219428           0.99054462958271   0.3217155599588637 1.0000   
         C         C         1.0       0.15708105629016939           0.9774123887042615 0.32733921567662966          1.0000   
         C         C         1.0       0.18819287466842716           0.9909506438374267 0.3119225539605709 1.0000   
         C         C         1.0       0.19912710320534707           0.019036302704150687         0.2934764975468706 1.0000   
         C         C         1.0       0.17618541788711276           0.030473100749085626         0.2871835286039966 1.0000   
         C         C         1.0       0.14485708279730147           0.016019410156776548         0.3009930257981468 1.0000   
         C         C         1.0       0.253029856533273   0.08193546182296646           0.28420398215574727          1.0000   
         C         C         1.0       0.2770600723466229  0.10846522023254143           0.26588149373638864          1.0000   
         C         C         1.0       0.28953127689052777           0.14285259638799994          0.2717103566464182 1.0000   
         C         C         1.0       0.27399222401666495           0.15157743469205653          0.2949464220666264 1.0000   
         C         C         1.0       0.2523331326861652  0.12677268248355478           0.31611872883614295          1.0000   
         C         C         1.0       0.24396569155106584           0.09310407805366439          0.3112424808232422 1.0000   
         C         C         1.0       0.2781169552439683  0.04264787362927492           0.3238462843853929 1.0000   
         C         C         1.0       0.3115819259152793  0.05369084627568069           0.334219036241197  1.0000   
         C         C         1.0       0.33825951948031274           0.06220759009419192          0.31417872875148   1.0000   
         C         C         1.0       0.33189866203583757           0.058137192975953635         0.2833111475781734 1.0000   
         C         C         1.0       0.298808317684386   0.0480339745180703  0.27249580005785384          1.0000   
         C         C         1.0       0.2710082622169787  0.04153722645521971           0.2930791404412135 1.0000   
         H         H         1.0       0.2570655684814797  0.9708276472934084  0.1077961847653504 1.0000   
         H         H         1.0       0.16862097280656374           0.9332012770127827 0.16973563679442663          1.0000   
         H         H         1.0       0.13853056190691393           0.8776653623873036 0.14562145096762966          1.0000   
         H         H         1.0       0.22939760689683847           0.91093649391501   0.08722195333381572          1.0000   
         H         H         1.0       0.15942001605604322           0.9868401585690542 0.1551268076974391 1.0000   
         H         H         1.0       0.13433443814137389           0.005563961867243172         0.12363508288284339          1.0000   
         H         H         1.0       0.21969379454801627           0.04424278518821832          0.06144862841224147          1.0000   
         H         H         1.0       0.2479955333624037  0.017666328314619895         0.09287258754508346          1.0000   
         H         H         1.0       0.22539623346282722           0.9586640709912995 0.20775551415011181          1.0000   
         H         H         1.0       0.22596658390406396           0.9792875357197434 0.25820738329205584          1.0000   
         H         H         1.0       0.22230012307689306           0.0650358751646542 0.22381851090562138          1.0000   
         H         H         1.0       0.22126362715724443           0.04775474508615331          0.17558552443600958          1.0000   
         H         H         1.0       0.1500431019031833  0.9604855569459968  0.34634959420072853          1.0000   
         H         H         1.0       0.20738675113281554           0.9829525362965061 0.31485203675510054          1.0000   
         H         H         1.0       0.18163516465861076           0.0480383583323149 0.26767593744641294          1.0000   
         H         H         1.0       0.12894952295937528           0.026369089933820256         0.29801646055286873          1.0000   
         H         H         1.0       0.2876627795643823  0.10373286499818128           0.24637329830977703          1.0000   
         H         H         1.0       0.3072237968485656  0.1616443181360868  0.2576662546333215 1.0000   
         H         H         1.0       0.24289678426178873           0.13262132401595236          0.3372903944950514 1.0000   
         H         H         1.0       0.2268571417264357  0.07465794754201724           0.32901838694860136          1.0000   
         H         H         1.0       0.25836516096177    0.03594881851325712           0.341853517361709  1.0000   
         H         H         1.0       0.31713421679140197           0.056381144596073955         0.35803060737921666          1.0000   
         H         H         1.0       0.352867495030322   0.06595856367333207           0.2665811900611427 1.0000   
         H         H         1.0       0.29533119297975546           0.04904272498054654          0.2488489989134136 1.0000   
         C         C         1.0       0.30565200163427597           0.11924282284996722          0.9011951547771606 1.0000   
         C         C         1.0       0.338954814311396   0.1342219473356437  0.9127467346228338 1.0000   
         C         C         1.0       0.35601672793299083           0.16918331105245207          0.9213692685109082 1.0000   
         C         C         1.0       0.3394880088099628  0.1884504229005675  0.9206623756416724 1.0000   
         C         C         1.0       0.3050838990118783  0.17090960991678075           0.9085658752306858 1.0000   
         C         C         1.0       0.2891724941664049  0.13748457127272862           0.8994028718535071 1.0000   
         H         H         1.0       0.351096312184651   0.1188203361057855  0.9142844943515624 1.0000   
         H         H         1.0       0.3836340688673979  0.17906078128336805           0.9266476597048324 1.0000   
         H         H         1.0       0.28961482173750147           0.18103397654005357          0.9097765959444383 1.0000   
         H         H         1.0       0.26284413318896643           0.12419479974809303          0.8908712058131952 1.0000   
         C         C         1.0       0.3379818448969278  0.2483485163807969  0.8878207539522784 1.0000   
         C         C         1.0       0.3465609599487989  0.25220017590285754           0.9184626321180139 1.0000   
         C         C         1.0       0.3476839374595659  0.27911225629744507           0.935212957719927  1.0000   
         C         C         1.0       0.34001668428554654           0.30235327685375446          0.9209553903470166 1.0000   
         C         C         1.0       0.3307398945282421  0.2963706305104019  0.890671717530316  1.0000   
         C         C         1.0       0.3276265736607031  0.26862336904959594           0.87472903277806   1.0000   
         C         C         1.0       0.3595932611079786  0.22853339098926398           0.9315015841767336 1.0000   
         C         C         1.0       0.400219324703948   0.2506903953071067  0.9214944576905132 1.0000   
         C         C         1.0       0.4262155760260444  0.27722415838638664           0.9387745161122513 1.0000   
         C         C         1.0       0.4580458075878208  0.29831147379505113           0.9247707621502683 1.0000   
         C         C         1.0       0.4681567332203435  0.292858383908186   0.8963654274032866 1.0000   
         C         C         1.0       0.4438725548596703  0.2637196124316892  0.8818034405394043 1.0000   
         C         C         1.0       0.40999423182580624           0.24411686353950668          0.8938231642082821 1.0000   
         C         C         1.0       0.32051643412844655           0.21368731553297585          0.9807406090296433 1.0000   
         C         C         1.0       0.3118721449037716  0.20459316673243907           0.010200203401964592         1.0000   
         C         C         1.0       0.3332338890391926  0.19644972963137772           0.027027525760366933         1.0000   
         C         C         1.0       0.3657285975784774  0.20388947692724999           0.0143880100806002 1.0000   
         C         C         1.0       0.3744943900455843  0.21558536669737974           0.9849964083174307 1.0000   
         C         C         1.0       0.3517892656225831  0.22147639888854817           0.9677613516903032 1.0000   
         C         C         1.0       0.32567367733116676           0.18386935494382747          0.06124038553283767          1.0000   
         C         C         1.0       0.3660986617044145  0.28976447028789354           0.09086355983684088          1.0000   
         C         C         1.0       0.33072822477131025           0.2691309016673402 0.08330611676780503          1.0000   
         C         C         1.0       0.3173054721185021  0.23418675291659258           0.07902287452853264          1.0000   
         C         C         1.0       0.33775774239163003           0.21977291960857745          0.0777149862909151 1.0000   
         C         C         1.0       0.3736274625562128  0.2412585292305415  0.08483552715383927          1.0000   
         C         C         1.0       0.3864588461037476  0.2748886861139207  0.0911887238519798 1.0000   
         C         C         1.0       0.3408850898244495  0.1606554891398307  0.07065093252779975          1.0000   
         C         C         1.0       0.33981847207810284           0.13685859287132104          0.049576585297479214         1.0000   
         C         C         1.0       0.36085888677774886           0.1225926161517321 0.05270867266597179          1.0000   
         C         C         1.0       0.38152543882452195           0.13191721952941884          0.07901572125250092          1.0000   
         C         C         1.0       0.37848181488308097           0.15094494150241963          0.10144006217403924          1.0000   
         C         C         1.0       0.3600240355739461  0.16653303708580672           0.09715409433293819          1.0000   
         C         C         1.0       0.2712830150944     0.15112890074796176           0.09590532974733607          1.0000   
         C         C         1.0       0.23560198256901657           0.12580252459793426          0.09958781411622768          1.0000   
         C         C         1.0       0.21419918063220644           0.1067703257151896 0.07611876215459414          1.0000   
         C         C         1.0       0.23045800709481878           0.11047561704535795          0.048467784761239925         1.0000   
         C         C         1.0       0.26555199687997666           0.13212142139499783          0.045640515721174654         1.0000   
         C         C         1.0       0.28653958327116635           0.15618743628120618          0.06712355057653228          1.0000   
         H         H         1.0       0.33865910133613375           0.2299824194886248 0.8728478889255631 1.0000   
         H         H         1.0       0.3567957986117525  0.28273325312592473           0.9588694032718562 1.0000   
         H         H         1.0       0.34199073494661136           0.32505448371544654          0.9309652607369027 1.0000   
         H         H         1.0       0.32164327572948403           0.26566395166649565          0.8513670417739725 1.0000   
         H         H         1.0       0.42074764801842063           0.2871062531067648 0.9594952424231907 1.0000   
         H         H         1.0       0.47858767567841554           0.3212483366654526 0.9358867669556804 1.0000   
         H         H         1.0       0.4482840432553959  0.25880643917626833           0.8585810077774776 1.0000   
         H         H         1.0       0.3906183437531207  0.2250239318263996  0.878375322121463  1.0000   
         H         H         1.0       0.3006968543671172  0.21347120817276174           0.9663737152306697 1.0000   
         H         H         1.0       0.2871575325651705  0.1987699210307756  0.019670477023371546         1.0000   
         H         H         1.0       0.3851009904683245  0.20049300011139443           0.02615498125417992          1.0000   
         H         H         1.0       0.39766758504209027           0.21670174266285663          0.974934009973669  1.0000   
         H         H         1.0       0.314400341324084   0.2793578360195138  0.08487151053386989          1.0000   
         H         H         1.0       0.2900282466443292  0.21934142870764956           0.07385014916373694          1.0000   
         H         H         1.0       0.39263505010037825           0.23377220050841913          0.08059009982534855          1.0000   
         H         H         1.0       0.4144175897079032  0.29150263427884743           0.09798555193391138          1.0000   
         H         H         1.0       0.3247306042079078  0.12846336685380236           0.030327135891065504         1.0000   
         H         H         1.0       0.3639441071458329  0.11074173961260408           0.032497766869187705         1.0000   
         H         H         1.0       0.3919121420920311  0.1564024739070727  0.12206226534657084          1.0000   
         H         H         1.0       0.3607078108987421  0.18475667336577692           0.11398082491523452          1.0000   
         H         H         1.0       0.2860007670547101  0.16838345719990652           0.1147201409021671 1.0000   
         H         H         1.0       0.22366204884957588           0.11929223270922396          0.1233254568337288 1.0000   
         H         H         1.0       0.21461647451800825           0.09186305474846164          0.030352185265410146         1.0000   
         H         H         1.0       0.275730154614961   0.13067606787886188           0.023339203144393084         1.0000   
         C         C         1.0       0.2595649245792204  0.2998945753532274  0.8644360050072069 1.0000   
         C         C         1.0       0.242121560024443   0.31537186754785534           0.8554170768393135 1.0000   
         C         C         1.0       0.2068051459675185  0.29985750007239226           0.8615288752889975 1.0000   
         C         C         1.0       0.18790804427982233           0.26871625425749684          0.8761993596090847 1.0000   
         C         C         1.0       0.20959396600293606           0.25724447212410023          0.8877195706703783 1.0000   
         C         C         1.0       0.24393033069030512           0.27119431477228884          0.8814612124957597 1.0000   
         H         H         1.0       0.2550724303912796  0.3388631812024143  0.8409625702360322 1.0000   
         H         H         1.0       0.19330225369821624           0.31236081788838116          0.8563258722591301 1.0000   
         H         H         1.0       0.19529706411143014           0.2331648322305895 0.9007765727273276 1.0000   
         H         H         1.0       0.2580222580612234  0.25930618047593834           0.8891333890146637 1.0000   
         C         C         1.0       0.1334150654411677  0.19364062112079977           0.8708959950027596 1.0000   
         C         C         1.0       0.12704173368806104           0.2140853038835062 0.8910531832520682 1.0000   
         C         C         1.0       0.09949133540839289           0.19727970195382036          0.9119746782135629 1.0000   
         C         C         1.0       0.07880784778014004           0.1621034211740163 0.9136298952841996 1.0000   
         C         C         1.0       0.08668049423171105           0.1417449836866359 0.8954917551651248 1.0000   
         C         C         1.0       0.11333410958655202           0.1583296027944256 0.8744352330844867 1.0000   
         C         C         1.0       0.15011238544858393           0.2556331271557125 0.8886117390919552 1.0000   
         C         C         1.0       0.12418821469418626           0.2609739108317778 0.8683713074185764 1.0000   
         C         C         1.0       0.09889745059217914           0.266066560042317  0.8817211925409396 1.0000   
         C         C         1.0       0.07618800181191143           0.2697945753580758 0.8642001908435241 1.0000   
         C         C         1.0       0.07596124340802435           0.2668702161777088 0.8330112490480724 1.0000   
         C         C         1.0       0.10118227152880364           0.2615478632415107 0.8194036475688913 1.0000   
         C         C         1.0       0.12562808362203912           0.2588207017607145 0.8361728012314852 1.0000   
         C         C         1.0       0.16007229108303087           0.2621006357493225 0.9484633314001024 1.0000   
         C         C         1.0       0.15820035982854716           0.27634232854317986          0.9761294088156066 1.0000   
         C         C         1.0       0.15634699205454475           0.306719892252048  0.9760833025679468 1.0000   
         C         C         1.0       0.1659574869888087  0.325463113537538   0.9497807387787449 1.0000   
         C         C         1.0       0.16665618533771803           0.31037817282019536          0.9218164740615398 1.0000   
         C         C         1.0       0.15705114262521822           0.2755565157889332 0.9208379906948491 1.0000   
         C         C         1.0       0.14341377236582084           0.3184416920173666 0.003952808820339326         1.0000   
         C         C         1.0       0.08969151276775311           0.24204943900758005          0.07655071389631159          1.0000   
         C         C         1.0       0.11380376636927865           0.27600783457951217          0.0840074509927472 1.0000   
         C         C         1.0       0.12974454064283436           0.301101767967074  0.061816775514381084         1.0000   
         C         C         1.0       0.12509143236919407           0.29140831852761484          0.031421263539937634         1.0000   
         C         C         1.0       0.09901316810569116           0.25788633036268477          0.025011703942721567         1.0000   
         C         C         1.0       0.08354518588072013           0.23215951864262047          0.04643992356267994          1.0000   
         C         C         1.0       0.11377616443661286           0.3266624204266532 0.9977614003327293 1.0000   
         C         C         1.0       0.09215130071040989           0.31175129960489795          0.9733148430738453 1.0000   
         C         C         1.0       0.06384555228933265           0.31619421951987065          0.9695809599616781 1.0000   
         C         C         1.0       0.05573343916083915           0.3352618536328495 0.989585244800344  1.0000   
         C         C         1.0       0.07660241601885955           0.3483077837278484 0.014708451018954571         1.0000   
         C         C         1.0       0.10656276099036767           0.34603631101466276          0.017754513200165523         1.0000   
         C         C         1.0       0.18873374674803625           0.38397827668747986          0.009865441947821907         1.0000   
         C         C         1.0       0.21811293200010473           0.4103491571052582 0.023470735128900744         1.0000   
         C         C         1.0       0.24238215136626745           0.40467284117126445          0.0375866518703574 1.0000   
         C         C         1.0       0.23282884518313068           0.37118209775838557          0.04151578562481695          1.0000   
         C         C         1.0       0.20256967664148115           0.3445664939453714 0.030117478406329168         1.0000   
         C         C         1.0       0.1782734589786609  0.34988889533316603           0.01546878615460856          1.0000   
         H         H         1.0       0.15371432815724395           0.20313141208901236          0.8551872696991902 1.0000   
         H         H         1.0       0.0951461155758223  0.21365957047408674           0.9283467688061193 1.0000   
         H         H         1.0       0.057929572533994556          0.1545270106007436 0.9305057341686535 1.0000   
         H         H         1.0       0.11602838364802612           0.140269702524951  0.8606890010685243 1.0000   
         H         H         1.0       0.09904727341517727           0.26928253989034556          0.9061363410621418 1.0000   
         H         H         1.0       0.053919315053283734          0.2720396593924794 0.8743751114033126 1.0000   
         H         H         1.0       0.10196264129835686           0.2587436185517912 0.7959321799042103 1.0000   
         H         H         1.0       0.14360213674204078           0.25295295617166524          0.8250860451057694 1.0000   
         H         H         1.0       0.15893574128132149           0.2378246510905291 0.9501483349558189 1.0000   
         H         H         1.0       0.1575857194641479  0.2615065172658561  0.9963369419593201 1.0000   
         H         H         1.0       0.16806627905795943           0.3504744583499916 0.9466479538478147 1.0000   
         H         H         1.0       0.1682340197887689  0.32391434258608837           0.9014845669281282 1.0000   
         H         H         1.0       0.11980944378340491           0.2845753615115648 0.10731437926112763          1.0000   
         H         H         1.0       0.14756368290687086           0.3274208694322851 0.06848982091353   1.0000   
         H         H         1.0       0.08899807964319839           0.2486203574337105 0.0032114840981174457        1.0000   
         H         H         1.0       0.06541127113642853           0.20696494334666415          0.03704555898878813          1.0000   
         H         H         1.0       0.09680969969328558           0.2955183689297549 0.9573139920965726 1.0000   
         H         H         1.0       0.051711821332898505          0.30594575459302664          0.9484715754780052 1.0000   
         H         H         1.0       0.07095676884724636           0.36224316668258666          0.03185035015266121          1.0000   
         H         H         1.0       0.12363754594794284           0.35782574505390924          0.03640940860754423          1.0000   
         H         H         1.0       0.1726814808759734  0.3912560774310909  0.996843627796911  1.0000   
         H         H         1.0       0.2239899365848045  0.4373552780011903  0.020826955855903106         1.0000   
         H         H         1.0       0.24816545549645533           0.36284746337613943          0.051654375298841426         1.0000   
         H         H         1.0       0.19777276934440244           0.3181223367255935 0.029913471969779337         1.0000   
         C         C         1.0       0.3565829125940106  0.466798210355222   0.2667787183008296 1.0000   
         C         C         1.0       0.33128113341310433           0.4643595929589267 0.2479314100220068 1.0000   
         C         C         1.0       0.31729824273452306           0.4402849357843758 0.2250651659848138 1.0000   
         C         C         1.0       0.33580252460042015           0.42402903347083215          0.21602692081570574          1.0000   
         C         C         1.0       0.3626049515634186  0.4282808075240059  0.23448579670372224          1.0000   
         C         C         1.0       0.3721497506477579  0.4486071679668637  0.26007795213352825          1.0000   
         H         H         1.0       0.3172680375919902  0.4775890011522827  0.2514416556478575 1.0000   
         H         H         1.0       0.2953009528003417  0.43815505179247677           0.21260533421483924          1.0000   
         H         H         1.0       0.37676353645254995           0.4159682335750882 0.2336898969760502 1.0000   
         H         H         1.0       0.39089097803380934           0.44878846978679804          0.2765557361099116 1.0000   
         C         C         1.0       0.37525885234842243           0.40210489430696783          0.17003724313958535          1.0000   
         C         C         1.0       0.3390698816809407  0.3823800013210735  0.17351805787512184          1.0000   
         C         C         1.0       0.322767025514985   0.3485387061763897  0.1629439019152735 1.0000   
         C         C         1.0       0.34090437100593535           0.3358669711853651 0.14765464327831568          1.0000   
         C         C         1.0       0.37652941520808353           0.35355053342846265          0.1459236796498553 1.0000   
         C         C         1.0       0.39349728437095594           0.38722432541198953          0.15692545021620277          1.0000   
         C         C         1.0       0.3165052137295957  0.39345064242542954           0.191439519909482  1.0000   
         C         C         1.0       0.30149166940201594           0.40382053916811145          0.16466311416079968          1.0000   
         C         C         1.0       0.2710185778508957  0.3809874964397055  0.14851340913741543          1.0000   
         C         C         1.0       0.25861214526858073           0.3919652529557939 0.12534708958313806          1.0000   
         C         C         1.0       0.27754410160729165           0.4252905397653159 0.11467698690427908          1.0000   
         C         C         1.0       0.3092148378549316  0.4487111493314073  0.12754470985296587          1.0000   
         C         C         1.0       0.3216801123065091  0.4381179260028943  0.1512150638630074 1.0000   
         C         C         1.0       0.30316760286890443           0.3488477044757755 0.23233598056986135          1.0000   
         C         C         1.0       0.2839850253134105  0.3305787872885494  0.257656660278634  1.0000   
         C         C         1.0       0.2523586411348106  0.3265689964520798  0.2651009789205444 1.0000   
         C         C         1.0       0.23773179255426005           0.3384087317600054 0.24446959219103848          1.0000   
         C         C         1.0       0.25558945234103636           0.35758512417085064          0.22037076414583082          1.0000   
         C         C         1.0       0.2903873908297512  0.3649964060476699  0.2143864349929571 1.0000   
         C         C         1.0       0.23528195591912515           0.3097036869125361 0.2972549992195724 1.0000   
         C         C         1.0       0.2612179723966425  0.22827242817863178           0.31479796772468194          1.0000   
         C         C         1.0       0.28318438933880924           0.2616991700888283 0.32586664056226783          1.0000   
         C         C         1.0       0.274228122512879   0.2862305724035605  0.3197280302935933 1.0000   
         C         C         1.0       0.24274212327294314           0.2784071020660373 0.3064857299706782 1.0000   
         C         C         1.0       0.2209757899419979  0.2437687021221621  0.2972939975286767 1.0000   
         C         C         1.0       0.2318079158890556  0.22082782983982116           0.2981750007333622 1.0000   
         C         C         1.0       0.19447903353678825           0.2918760449855279 0.3028483579238683 1.0000   
         C         C         1.0       0.16983192389617127           0.2769981493475213 0.27961494718263774          1.0000   
         C         C         1.0       0.13485536434421883           0.25958194881490093          0.28479398602450845          1.0000   
         C         C         1.0       0.12336909882631616           0.25499318330039356          0.31461143572222705          1.0000   
         C         C         1.0       0.1457391523866124  0.26487103158113073           0.33778494063779146          1.0000   
         C         C         1.0       0.1810189760022321  0.28283271605705823           0.3326755873584279 1.0000   
         C         C         1.0       0.26105385768866995           0.3426975394864213 0.34820528320573074          1.0000   
         C         C         1.0       0.2666939318224311  0.3679222695837781  0.368780275906519  1.0000   
         C         C         1.0       0.2601468657732399  0.39295046949016177           0.3601264292215537 1.0000   
         C         C         1.0       0.2489226034718756  0.3941881213806859  0.3310523295269056 1.0000   
         C         C         1.0       0.24364269898814256           0.36968899425883756          0.31080272320881874          1.0000   
         C         C         1.0       0.24845987942389847           0.34230001417281325          0.3198188740913939 1.0000   
         H         H         1.0       0.39001089028371166           0.4290266508032475 0.1760555356254857 1.0000   
         H         H         1.0       0.29446137383819887           0.33315966278557557          0.1656020120277748 1.0000   
         H         H         1.0       0.3255592581753083  0.3090942453904057  0.13854782769648533          1.0000   
         H         H         1.0       0.420334117017707   0.40231463175649296           0.15219945571560767          1.0000   
         H         H         1.0       0.2565676477743391  0.35472671422389385           0.15294370870274698          1.0000   
         H         H         1.0       0.23437630923660926           0.3725365044961149 0.11445620897963406          1.0000   
         H         H         1.0       0.3244678912372611  0.47393348048440326           0.11829598897887818          1.0000   
         H         H         1.0       0.34591384517778284           0.4577182825731272 0.1619407398488265 1.0000   
         H         H         1.0       0.32995601406519803           0.35398754331265136          0.2288484277021602 1.0000   
         H         H         1.0       0.29571108972240046           0.32013204387755306          0.27009850182921075          1.0000   
         H         H         1.0       0.2098813315013573  0.33107369995670877           0.24673863749750868          1.0000   
         H         H         1.0       0.2418144876616681  0.3670265837486354  0.20660681724069752          1.0000   
         H         H         1.0       0.30649878662082025           0.2678101581834233 0.33677685157842896          1.0000   
         H         H         1.0       0.29598682602327087           0.3107085697922694 0.3258351656952862 1.0000   
         H         H         1.0       0.19729281799361245           0.23674705278906077          0.2876763089002481 1.0000   
         H         H         1.0       0.21562480150933955           0.19375708089142216          0.290387055847713  1.0000   
         H         H         1.0       0.17986836787035476           0.27984186031649666          0.25672182119678044          1.0000   
         H         H         1.0       0.1189468185439621  0.2511052609459711  0.26531395605643693          1.0000   
         H         H         1.0       0.13708462821153752           0.26096095236228384          0.36163478812710753          1.0000   
         H         H         1.0       0.19835280269855465           0.29026391145530717          0.35111144964593344          1.0000   
         H         H         1.0       0.26547184203985175           0.3219567643561459 0.3555712272252624 1.0000   
         H         H         1.0       0.274629834458405   0.36627973021101584           0.3913670866289077 1.0000   
         H         H         1.0       0.24394022681050578           0.4156496672001443 0.32719124445959197          1.0000   
         H         H         1.0       0.2347164822437204  0.370117694860683   0.28833776163036073          1.0000   
         C         C         1.0       0.8720836190930645  0.017204869296801872         0.16360655233189542          1.0000   
         C         C         1.0       0.8915522734820599  0.0035317826933070062        0.151642141207778  1.0000   
         C         C         1.0       0.9271084886312294  0.021612129453981943         0.15472722707097183          1.0000   
         C         C         1.0       0.9446649678580833  0.05135065906692193           0.17263088876185886          1.0000   
         C         C         1.0       0.9247731182211095  0.06493128979897334           0.1824354917499814 1.0000   
         C         C         1.0       0.8881858346440648  0.04735324808886476           0.17884750126793073          1.0000   
         H         H         1.0       0.8802488789337491  0.981910728898379   0.1381987643310157 1.0000   
         H         H         1.0       0.9391046621263492  0.008090737810272586         0.14287016198029662          1.0000   
         H         H         1.0       0.9349993927871295  0.08659637323433977           0.19715838399315846          1.0000   
         H         H         1.0       0.8741383145269512  0.05717136610756324           0.18973621635569068          1.0000   
         C         C         1.0       0.9999596901619756  0.10404914959479825           0.12852677017690992          1.0000   
         C         C         1.0       0.997234288813437   0.10330856575533322           0.1609011140115747 1.0000   
         C         C         1.0       0.006646209715182039          0.1330954422088316 0.17463783793087553          1.0000   
         C         C         1.0       0.017742337742281178          0.16245157203442667          0.15874182811962387          1.0000   
         C         C         1.0       0.021944298196717282          0.1635718045398685 0.1284873945783382 1.0000   
         C         C         1.0       0.011244827298604543          0.13375996662961495          0.11352106740197436          1.0000   
         C         C         1.0       0.983722274650747   0.06957718162025664           0.1812516660838784 1.0000   
         C         C         1.0       0.0008212216394867244         0.04788874656453501          0.17287354436753002          1.0000   
         C         C         1.0       0.0317116115917464  0.061333305467286436         0.15718201505706103          1.0000   
         C         C         1.0       0.05160786912710025           0.04567879317036039          0.158977468598889  1.0000   
         C         C         1.0       0.03712003519923268           0.013127599585461391         0.17284857214797333          1.0000   
         C         C         1.0       0.006607473303601008          0.00015888404313635363       0.18831862907193336          1.0000   
         C         C         1.0       0.988240491311583   0.016151635053202495         0.1877967736374588 1.0000   
         C         C         1.0       0.9672325541718421  0.06386393370727617           0.23981604214768484          1.0000   
         C         C         1.0       0.9753729973357326  0.06093650727415882           0.26811007530151193          1.0000   
         C         C         1.0       0.009948217514200497          0.07444653105419469          0.27667120563413894          1.0000   
         C         C         1.0       0.036600742864220104          0.08909628127719618          0.25458714549443434          1.0000   
         C         C         1.0       0.02920219221015996           0.09370043108449715          0.22518122283938918          1.0000   
         C         C         1.0       0.9938811793641241  0.0762517494840182  0.21625810877874643          1.0000   
         C         C         1.0       0.017604095332373282          0.06772731565209202          0.3114497819053375 1.0000   
         C         C         1.0       0.05744107889215976           0.17496225489227019          0.33879020160941004          1.0000   
         C         C         1.0       0.02098893274180469           0.15214710007082155          0.335685731301384  1.0000   
         C         C         1.0       0.01005886813591017           0.11740175467517863          0.32929535608934607          1.0000   
         C         C         1.0       0.03566977753439171           0.10682857647225742          0.32173479859794973          1.0000   
         C         C         1.0       0.07058666972120946           0.1318191444313876 0.3225228530214644 1.0000   
         C         C         1.0       0.08203332736099112           0.1647624777924549 0.33229213460084117          1.0000   
         C         C         1.0       0.04044582483170963           0.05047655483857261          0.3119883771207438 1.0000   
         C         C         1.0       0.0338419585437546  0.02490390861330627           0.2906825185130421 1.0000   
         C         C         1.0       0.04559284285782599           0.0019142120689761288        0.2954066267777676 1.0000   
         C         C         1.0       0.06101142253824714           0.0011940390554532332        0.32203919701689543          1.0000   
         C         C         1.0       0.06722646770968918           0.02613268265644808          0.3453149109139028 1.0000   
         C         C         1.0       0.057064504315083156          0.04986185656531017          0.33946574868516627          1.0000   
         C         C         1.0       0.9850648990748386  0.04555792756346744           0.36338633624402406          1.0000   
         C         C         1.0       0.9633283404555031  0.02148696261024674           0.38367421910764793          1.0000   
         C         C         1.0       0.938159130460587   0.9907911635473671  0.3715357705354425 1.0000   
         C         C         1.0       0.9355453281138222  0.9834824447510712  0.3413580549322676 1.0000   
         C         C         1.0       0.95853243514218    0.007130730435454646         0.32185107769161087          1.0000   
         C         C         1.0       0.9847304242855819  0.04007691526757884           0.3321606535979507 1.0000   
         H         H         1.0       0.9922625623360246  0.07853664203914348           0.11786785370246647          1.0000   
         H         H         1.0       0.0018213370386241934         0.13396870147358053          0.1987642043429469 1.0000   
         H         H         1.0       0.02257258602993817           0.18576347878987126          0.17162932641164955          1.0000   
         H         H         1.0       0.010127080385503806          0.12935278910458653          0.08943722954333645          1.0000   
         H         H         1.0       0.04460713145809114           0.0859803741999916 0.14561243010636407          1.0000   
         H         H         1.0       0.0801879007409001  0.05908889643044524           0.15278825008904334          1.0000   
         H         H         1.0       0.9962952934455495  0.9771607219499712  0.20129134771162166          1.0000   
         H         H         1.0       0.9624707615945384  0.003748816932931609         0.199267546108874  1.0000   
         H         H         1.0       0.9401526931735879  0.05302247737197502           0.2354626814328567 1.0000   
         H         H         1.0       0.9550054799718534  0.04660290432035643           0.28401919611916215          1.0000   
         H         H         1.0       0.061764295421248075          0.09936079974590563          0.2617950015104532 1.0000   
         H         H         1.0       0.049837889244615186          0.10747521964362369          0.20905735851715915          1.0000   
         H         H         1.0       0.0010252668600070347         0.1586499586615901 0.3426257024586582 1.0000   
         H         H         1.0       0.9829793695696454  0.10134441483681852           0.328145359093341  1.0000   
         H         H         1.0       0.0887592698896761  0.12402958005990254           0.31577711137996584          1.0000   
         H         H         1.0       0.11080185088966861           0.18452611496643634          0.3320394158710638 1.0000   
         H         H         1.0       0.02125702671808316           0.023399811405904858         0.27010947785665196          1.0000   
         H         H         1.0       0.04017062169806824           0.9804475831541299 0.28154604953097895          1.0000   
         H         H         1.0       0.07552488595163451           0.026650263904959726         0.36781048951336603          1.0000   
         H         H         1.0       0.058200895962398004          0.06536809942520096          0.35831016168539337          1.0000   
         H         H         1.0       0.006098311590716499          0.06713135170033699          0.37474720673095985          1.0000   
         H         H         1.0       0.9646722382011242  0.027138034503848774         0.4089107303870648 1.0000   
         H         H         1.0       0.9147076362334852  0.9566772265976423  0.3323402854296142 1.0000   
         H         H         1.0       0.9574461614070614  0.0015734475608371046        0.29714903588685343          1.0000   
         C         C         1.0       0.08234349796977534           0.2368390710547595 0.32065061531728456          1.0000   
         C         C         1.0       0.06906106374575227           0.21134478604291657          0.3465147538679301 1.0000   
         H         H         1.0       0.06521406888429533           0.22271210648960388          0.3001823153319328 1.0000   
         H         H         1.0       0.07659383436452151           0.2574569999125022 0.32534660730414056          1.0000   
         H         H         1.0       0.046842632693435325          0.21317310452786858          0.3551559238606693 1.0000   
         H         H         1.0       0.08461580777626444           0.22100849748846846          0.36702301944116056          1.0000   
         C         C         1.0       0.07705348784066746           0.21301866195108957          0.09998827789122988          1.0000   
         C         C         1.0       0.03791727192581695           0.196244869803851  0.11017542621806944          1.0000   
         H         H         1.0       0.08030634748394694           0.19266639336850266          0.08881789945852403          1.0000   
         H         H         1.0       0.09601351305653205           0.2233638779452885 0.12028794760988484          1.0000   
         H         H         1.0       0.02491831143119727           0.193496827545408  0.08835441432778825          1.0000   
         H         H         1.0       0.03727662198701953           0.2162902108566109 0.12330918566551954          1.0000   
         C         C         1.0       0.2735180804454839  0.4323538852394392  0.05503972128533215          1.0000   
         C         C         1.0       0.26343798462127194           0.4376495651040829 0.08913616282310591          1.0000   
         H         H         1.0       0.2962221749317192  0.43038605508358846           0.05585332387192037          1.0000   
         H         H         1.0       0.2830445234734465  0.4546987717447734  0.0403566699496064 1.0000   
         H         H         1.0       0.23397574951042419           0.4233835698842485 0.08985822068765523          1.0000   
         H         H         1.0       0.2746379005854286  0.46517080257077487           0.09160474264926163          1.0000   
         C         C         1.0       0.38356068929170267           0.3288828608525602 0.0962396710594889 1.0000   
         C         C         1.0       0.3954444433150764  0.338031947153706   0.12932537749080836          1.0000   
         H         H         1.0       0.4053723745279734  0.3438480896972448  0.08094040254946891          1.0000   
         H         H         1.0       0.3649447107848114  0.3372029732487841  0.08983431862149856          1.0000   
         H         H         1.0       0.39182511287941124           0.3145650202183323 0.14137056792341332          1.0000   
         H         H         1.0       0.424069287299169   0.3562311759046975  0.13211767140189704          1.0000   
         C         C         1.0       0.3259562367825451  0.3233796654451104  0.8732880082088352 1.0000   
         C         C         1.0       0.29573486462644333           0.31025867067141133          0.8504335276890113 1.0000   
         H         H         1.0       0.3211166502108825  0.34039849487195334           0.8866228348647188 1.0000   
         H         H         1.0       0.34999461797304504           0.3362937326169401 0.8602535231086036 1.0000   
         H         H         1.0       0.29577590203844184           0.29083582767826227          0.8360213163611885 1.0000   
         H         H         1.0       0.30199973763884636           0.3315227628050852 0.8352808166981442 1.0000   
         C         C         1.0       0.10301890477205905           0.9808361821657711 0.34466302896655177          1.0000   
         C         C         1.0       0.06735904390747159           0.9720085087535364 0.3290678216095136 1.0000   
         H         H         1.0       0.10062095116729226           0.961027369226186  0.3589838927838545 1.0000   
         H         H         1.0       0.11234659881991683           0.004085178675791834         0.35922828023731035          1.0000   
         H         H         1.0       0.04784161645976424           0.9555333556106322 0.3436771787526293 1.0000   
         H         H         1.0       0.0601228003622313  0.9562746889202364  0.30749942307370925          1.0000   
         C         C         1.0       0.16114953346548877           0.044619203430540974         0.07072543982767415          1.0000   
         C         C         1.0       0.17515362235968276           0.0822243950972813 0.08091681081285597          1.0000   
         H         H         1.0       0.16677802322525817           0.04504294110825633          0.045117963942774425         1.0000   
         H         H         1.0       0.13370617490021192           0.03154336980470282          0.07360954927648489          1.0000   
         H         H         1.0       0.16494493722544    0.08416017942900768           0.10426399262051737          1.0000   
         H         H         1.0       0.16524652599060097           0.09360519230076553          0.06442038983728457          1.0000   
         C         C         1.0       0.28450819156592394           0.18880941489916395          0.2993333236238163 1.0000   
         C         C         1.0       0.26783263688325437           0.19927878142461566          0.3246054585408561 1.0000   
         H         H         1.0       0.3130049418018494  0.20849244797283162           0.30269196099206747          1.0000   
         H         H         1.0       0.2759965802665734  0.1936356453647513  0.2772337754082801 1.0000   
         H         H         1.0       0.2856399262286593  0.20731927215614093           0.34627194715330323          1.0000   
         H         H         1.0       0.24352023891322722           0.17731162407894055          0.33125646167616624          1.0000   
         C         C         1.0       0.044282806989453194          0.9563599120368845 0.173353147273194  1.0000   
         C         C         1.0       0.05914512171142583           0.9961628798660241 0.17926018410201494          1.0000   
         H         H         1.0       0.015255422432166155          0.9402384481253622 0.17610474257225614          1.0000   
         H         H         1.0       0.05236403064101047           0.9472750281098219 0.19256359494370517          1.0000   
         H         H         1.0       0.08636074849144398           0.010892340147808932         0.16871374412116133          1.0000   
         H         H         1.0       0.06399318372976594           0.9990899666941583 0.2031398745154402 1.0000   
         C         C         1.0       0.06737481035094184           0.08553000060309857          0.9253141663590153 1.0000   
         C         C         1.0       0.06453703658908139           0.10274497176373493          0.8957654447628156 1.0000   
         H         H         1.0       0.0405073464485753  0.07225248620365252           0.9347746174231268 1.0000   
         H         H         1.0       0.08101090388005504           0.10723132495679222          0.9420465873326913 1.0000   
         H         H         1.0       0.03550983864402846           0.0948626717611594 0.8935780832903474 1.0000   
         H         H         1.0       0.06931490250805528           0.09123636045459109          0.8751639162501881 1.0000   
         C         C         1.0       0.15870361098652289           0.8582042007462641 0.059728022825064335         1.0000   
         C         C         1.0       0.16180981929688282           0.856547910773915  0.09435072667739092          1.0000   
         H         H         1.0       0.1474931867345263  0.8338103860905361  0.046012078454383154         1.0000   
         H         H         1.0       0.18548492032099578           0.8745456178082123 0.048968898578917466         1.0000   
         H         H         1.0       0.17534761619707925           0.8431382996672827 0.09775492123490241          1.0000   
         H         H         1.0       0.13660516948555426           0.8400009639506798 0.10482293054503854          1.0000   
         C         C         1.0       0.26998261583198996           0.05131057017946113          0.9128319902329939 1.0000   
         C         C         1.0       0.28922588528710547           0.08082256733842447          0.8903826859524316 1.0000   
         H         H         1.0       0.2853003889427734  0.059190684090961045         0.9339158930766777 1.0000   
         H         H         1.0       0.27002671634947545           0.029735328393940604         0.9031950457840994 1.0000   
         H         H         1.0       0.31140664434194865           0.07946006404559447          0.878947206755466  1.0000   
         H         H         1.0       0.2745005534733022  0.07703608339502233           0.869161943016214  1.0000   
         C         C         1.0       0.11199320657493549           0.8776224807744765 0.832197311800319  1.0000   
         C         C         1.0       0.08078418449373748           0.8792190414314246 0.8437460650752181 1.0000   
         H         H         1.0       0.10329856035359217           0.8561822769253561 0.8162375908728746 1.0000   
         H         H         1.0       0.12417432401488536           0.8716446899104023 0.850964221494586  1.0000   
         H         H         1.0       0.060189082116359524          0.8544938391551974 0.8523778609361322 1.0000   
         H         H         1.0       0.06830870133650604           0.883755034189874  0.8254693122972969 1.0000   
         C         C         1.0       0.915592359342783   0.9352015865740034  0.4010917486451323 1.0000   
         C         C         1.0       0.908721719391073   0.9653492344691713  0.3937143489761646 1.0000   
         H         H         1.0       0.9117407402670247  0.9198985849282609  0.38112291150113803          1.0000   
         H         H         1.0       0.8909710143827958  0.9172216057151559  0.4136141108689969 1.0000   
         H         H         1.0       0.9068041287376197  0.9788687168813527  0.4143546209358108 1.0000   
         H         H         1.0       0.8825560659104918  0.9526206312320554  0.38272694358330284          1.0000   
         C         C         1.0       0.247703690596028   0.9987240407416871  0.5455654556845897 1.0000   
         C         C         1.0       0.21202566344537    0.96488185403883    0.5395086455518557 1.0000   
         H         H         1.0       0.25155382095800694           0.021943054544515617         0.532566504182603  1.0000   
         H         H         1.0       0.2692903051218525  0.9954241738702011  0.5372771693969117 1.0000   
         H         H         1.0       0.210013908953679   0.943463496559471   0.5527677641142501 1.0000   
         H         H         1.0       0.2124529439660281  0.9532719188960156  0.5166333816622093 1.0000   
         C         C         1.0       0.013086614383521988          0.2269167246173057 0.81401375518963   1.0000   
         C         C         1.0       0.0463462779958661  0.2637102376177188  0.8138272130363444 1.0000   
         H         H         1.0       0.9912272957324888  0.2270600404063759  0.8039677299395884 1.0000   
         H         H         1.0       0.005587334031313285          0.22368397769957638          0.8380370143951571 1.0000   
         H         H         1.0       0.03988897744262254           0.28194263640655526          0.8249568961668142 1.0000   
         H         H         1.0       0.05293341994221312           0.2739087082158047 0.7905767449206682 1.0000   
         C         C         1.0       0.042792083858026915          0.9410953892287921 0.7189921462681412 1.0000   
         C         C         1.0       0.0802620587981365  0.9667029927484535  0.706610030814745  1.0000   
         H         H         1.0       0.042094402488563804          0.9332765977461163 0.742038427488864  1.0000   
         H         H         1.0       0.03699262646767303           0.9173655754530985 0.706211030426126  1.0000   
         H         H         1.0       0.09953645258612039           0.9620089013623419 0.7178794990196692 1.0000   
         H         H         1.0       0.09098533843225938           0.9942434649860811 0.7143009256286155 1.0000   
         C         C         1.0       0.06819694522741529           0.03127853633074462          0.8366860094874341 1.0000   
         C         C         1.0       0.07499014263163978           0.00802443497730243          0.815680998711043  1.0000   
         H         H         1.0       0.08802718609760038           0.043610882249089565         0.8550074648832304 1.0000   
         H         H         1.0       0.04191631092415138           0.01375694508653269          0.8483145257865367 1.0000   
         H         H         1.0       0.06529567913698209           0.9837092582261371 0.8277635341768783 1.0000   
         H         H         1.0       0.05726047484067753           0.001514112103869536         0.7968345634598012 1.0000   
         C         C         1.0       0.37444729408723426           0.07764554162645089          0.32715267294808886          1.0000   
         C         C         1.0       0.3929470962241916  0.11640808121893716           0.32507989669027987          1.0000   
         H         H         1.0       0.3787078767004895  0.0703516278307561  0.35095569961281053          1.0000   
         H         H         1.0       0.39120011006377625           0.06835119351695951          0.31511016453470764          1.0000   
         H         H         1.0       0.39258304204637595           0.1264428167652661 0.3008534029659663 1.0000   
         H         H         1.0       0.421181214097483   0.12778584844269572           0.3273429472132831 1.0000   
         C         C         1.0       0.3884866068668371  0.20989992105298128           0.6577987486359869 1.0000   
         C         C         1.0       0.4006564894014348  0.19183733836055597           0.6801926468465122 1.0000   
         H         H         1.0       0.40143398546613346           0.23797333247017163          0.6605163842682852 1.0000   
         H         H         1.0       0.36215662655227154           0.20240587060397555          0.6658593229097332 1.0000   
         H         H         1.0       0.3981621657687841  0.2012371244789013  0.7023473272403047 1.0000   
         H         H         1.0       0.42825808522043546           0.20066802890322946          0.6770452708369629 1.0000   
         C         C         1.0       0.1945490576890281  0.026232424359975415         0.3961688989734027 1.0000   
         C         C         1.0       0.17371290927119748           0.0036120121610268008        0.4232691502771053 1.0000   
         H         H         1.0       0.20677002008098755           0.01448475496016921          0.38244108923186876          1.0000   
         H         H         1.0       0.17514163141821187           0.0267624673283271 0.3796215839180188 1.0000   
         H         H         1.0       0.1911639216444153  0.008723265963373361         0.4440527622679406 1.0000   
         H         H         1.0       0.16540954580810166           0.9761269102930873 0.4169716430738828 1.0000   
         C         C         1.0       0.4988298058021069  0.34791905829538894           0.8638531621191898 1.0000   
         C         C         1.0       0.5021421700826159  0.32111300439449364           0.8820833420443158 1.0000   
         H         H         1.0       0.4960821825226074  0.3633839212462902  0.8817891315785519 1.0000   
         H         H         1.0       0.524237423901668   0.3665214968476979  0.8520218121125726 1.0000   
         H         H         1.0       0.5245870301113592  0.3335832212676577  0.8986270115150031 1.0000   
         H         H         1.0       0.5094621514487268  0.3080061167322139  0.8665659437838826 1.0000   
         C         C         1.0       0.4992898179094215  0.34332556291437577           0.5489118370795382 1.0000   
         C         C         1.0       0.5044728492916317  0.3447948787561014  0.5834047194362675 1.0000   
         H         H         1.0       0.5260412943632445  0.35877227289312025           0.5384386611743561 1.0000   
         H         H         1.0       0.48665301123015653           0.3589715247505761 0.544486622473019  1.0000   
         H         H         1.0       0.528278532916928   0.369927611393125   0.587826179826933  1.0000   
         H         H         1.0       0.511817911200479   0.32536655219180577           0.5899708921394978 1.0000   
         C         C         1.0       0.24643642516246483           0.2642047875917435 0.7710831216964937 1.0000   
         C         C         1.0       0.21856121305723974           0.24832021768732343          0.7462607174204021 1.0000   
         H         H         1.0       0.2329493328235     0.24890925541888273           0.7913487182977003 1.0000   
         H         H         1.0       0.2501449123800623  0.28872965077222296           0.7780036988218727 1.0000   
         H         H         1.0       0.2311117949664635  0.2399116702922066  0.7296943947274087 1.0000   
         H         H         1.0       0.22053329874863145           0.27154383553252004          0.7374763064308049 1.0000   
         C         C         1.0       0.36877879387493623           0.13251817172291125          0.8107205852827967 1.0000   
         C         C         1.0       0.34990329890148736           0.10185377642165833          0.7881951744283501 1.0000   
         H         H         1.0       0.3949885889665781  0.13780297753417156           0.8141440132115788 1.0000   
         H         H         1.0       0.36064915068836795           0.1297251920228283 0.8357470914547399 1.0000   
         H         H         1.0       0.3609495320136955  0.08504416961543701           0.7910407288308086 1.0000   
         H         H         1.0       0.3571182167458351  0.11344303734898001           0.7651050596101344 1.0000   
         C         C         1.0       0.2276922039922664  0.4059569070670778  0.4023218186254755 1.0000   
         C         C         1.0       0.2627955131161295  0.4177923663019981  0.38490832641109346          1.0000   
         H         H         1.0       0.2102814146718655  0.40924047386433615           0.38813154403550454          1.0000   
         H         H         1.0       0.2340282097154246  0.4260619102810626  0.42028425979288414          1.0000   
         H         H         1.0       0.28741666495061985           0.4271244102992069 0.398736489931525  1.0000   
         H         H         1.0       0.26880635574142253           0.442829055739095  0.3729642262625926 1.0000   
         C         C         1.0       0.9645875060679441  0.08227295534643068           0.5582854679520783 1.0000   
         C         C         1.0       0.9750917459880414  0.05603846393772465           0.5653304658242674 1.0000   
         H         H         1.0       0.9433967230022112  0.07993683840377122           0.5726659669624136 1.0000   
         H         H         1.0       0.9515621275807885  0.0753276597621942  0.5357605751169736 1.0000   
         H         H         1.0       0.002290820413122896          0.06357481175749158          0.5574360475908563 1.0000   
         H         H         1.0       0.9592490326515548  0.03466164100948229           0.551176560861604  1.0000   
         C         C         1.0       0.2111447124007469  0.25995063377840094           0.6412640987486571 1.0000   
         C         C         1.0       0.23877896130085136           0.2606815374522049 0.6185325248421225 1.0000   
         H         H         1.0       0.22191647937774814           0.28363530525531694          0.6566117877809851 1.0000   
         H         H         1.0       0.20523960312361977           0.23927920095980723          0.6585782269982438 1.0000   
         H         H         1.0       0.23992226935883235           0.2783982100489138 0.6006929509759393 1.0000   
         H         H         1.0       0.23011402724017055           0.23626336533938655          0.6075494077426644 1.0000   
         C         C         1.0       0.0185112156478906  0.10996265541814342           0.4381542749856672 1.0000   
         C         C         1.0       0.03729619776319149           0.13783072310149677          0.4126795070848318 1.0000   
         H         H         1.0       0.013289010966654446          0.12178205196332453          0.45846513283370455          1.0000   
         H         H         1.0       0.9912880734085656  0.09229687858552056           0.43130353683894995          1.0000   
         H         H         1.0       0.02057687117669338           0.1473532422999945 0.4031587820839888 1.0000   
         H         H         1.0       0.04027470758930937           0.12482849166066175          0.3936604358410563 1.0000   
         C         C         1.0       0.30366720318751483           0.29490609800719203          0.40882180023801556          1.0000   
         C         C         1.0       0.3273353670047495  0.28784966413334584           0.42642453828521454          1.0000   
         H         H         1.0       0.3165777266974385  0.32270684552934875           0.40420742100907747          1.0000   
         H         H         1.0       0.3006840956128967  0.2847556937435393  0.3852917339848983 1.0000   
         H         H         1.0       0.32111122994182245           0.28870595053425757          0.4502094449941721 1.0000   
         H         H         1.0       0.35475631709537275           0.30906018401965657          0.42496786451928675          1.0000   
         C         C         1.0       0.7229071506341909  0.8145860536290038  0.3204293329388842 1.0000   
         C         C         1.0       0.6982253146724735  0.7990919455380063  0.3484403551261326 1.0000   
         H         H         1.0       0.730333872280334   0.7959312001842153  0.31211900642757323          1.0000   
         H         H         1.0       0.7471544199151262  0.8369256421745227  0.33047006135628393          1.0000   
         H         H         1.0       0.7099123059038637  0.7888140546361453  0.363222990104884  1.0000   
         H         H         1.0       0.6986538474174195  0.8201960868097127  0.3611444080896631 1.0000   
         C         C         1.0       0.8340477603015606  0.9953685565121532  0.16424992939581348          1.0000   
         C         C         1.0       0.8198022339079551  0.9732059103305907  0.19342665944914764          1.0000   
         H         H         1.0       0.8218198370674138  0.01135903702098573           0.16095509745713318          1.0000   
         H         H         1.0       0.8246238579380623  0.9770497590895357  0.14532179034774653          1.0000   
         H         H         1.0       0.8258231127310484  0.9907311980823041  0.21284180632751099          1.0000   
         H         H         1.0       0.836170581744271   0.9612112494803625  0.1979402408153981 1.0000   
         C         C         1.0       0.4998254493325957  0.7291730602341197  0.1854429485016437 1.0000   
         C         C         1.0       0.5275816583083986  0.7535206588605011  0.20681644178415293          1.0000   
         H         H         1.0       0.5106807630407859  0.7185606142187821  0.1698863679040698 1.0000   
         H         H         1.0       0.49209080821450873           0.7442025516402583 0.1693610438272951 1.0000   
         H         H         1.0       0.5183155699112543  0.770575876006766   0.2165207208888102 1.0000   
         H         H         1.0       0.5526191418819484  0.773745768127086   0.19525196495872943          1.0000   
         C         C         1.0       0.46849773116497984           0.6158671327546784 0.12918386702665602          1.0000   
         C         C         1.0       0.4426618730585559  0.5936514999616416  0.10425686224236295          1.0000   
         H         H         1.0       0.47728537247208247           0.6005321066819304 0.14401883859685996          1.0000   
         H         H         1.0       0.4546208515267075  0.6237395095969017  0.1443746508140288 1.0000   
         H         H         1.0       0.4399982471222225  0.5681447654418509  0.10943234970538429          1.0000   
         H         H         1.0       0.45469914365436453           0.6017183592604537 0.08179768381826107          1.0000   
         C         C         1.0       0.3973871488202476  0.5281268322672459  0.28870712851383734          1.0000   
         C         C         1.0       0.3662916467791561  0.4903849716777297  0.29329286025739415          1.0000   
         H         H         1.0       0.41777902494831703           0.5296088288719983 0.2725154157976916 1.0000   
         H         H         1.0       0.4086261369314987  0.5381084339093356  0.3112963890167553 1.0000   
         H         H         1.0       0.3723083117240708  0.48084628360533666           0.31237384682127145          1.0000   
         H         H         1.0       0.34206455115713474           0.4912959000682521 0.30153022361304266          1.0000   
         C         C         1.0       0.3411328546732065  0.7360530108058847  0.3615651054955414 1.0000   
         C         C         1.0       0.32802534332580885           0.7310195315991177 0.39490053922235674          1.0000   
         H         H         1.0       0.35358717385303445           0.7633642305355547 0.3560247911044161 1.0000   
         H         H         1.0       0.3173637163263636  0.7200561219908089  0.3474205091821277 1.0000   
         H         H         1.0       0.3047776858696539  0.7051917946851702  0.39739236042539844          1.0000   
         H         H         1.0       0.34803875074783364           0.7346526255548644 0.4115194609676072 1.0000   
         C         C         1.0       0.25047121834748715           0.6706618977206521 0.2834055981555795 1.0000   
         C         C         1.0       0.2849115384373392  0.6794365399637636  0.2973322728535089 1.0000   
         H         H         1.0       0.25274326511785106           0.6694705447471341 0.25853951620221427          1.0000   
         H         H         1.0       0.22835568732466655           0.6446349357597497 0.28708472947151326          1.0000   
         H         H         1.0       0.2783343808277324  0.6698729699199203  0.3205173571118091 1.0000   
         H         H         1.0       0.3045126106677031  0.7064234534817829  0.29706871657483164          1.0000   
         C         C         1.0       0.4513391248786235  0.9710711318567147  0.45282034511548475          1.0000   
         C         C         1.0       0.42440471441124394           0.9663487923501182 0.42803299468065303          1.0000   
         H         H         1.0       0.4391154773412675  0.9639049499916357  0.47539810413272376          1.0000   
         H         H         1.0       0.47051489053161066           0.998500821966999  0.4559852280992869 1.0000   
         H         H         1.0       0.43607053896681663           0.9689700043901093 0.4044009648780257 1.0000   
         H         H         1.0       0.42185096251211224           0.9888804767134792 0.42828062013478674          1.0000   
         C         C         1.0       0.5185767370734324  0.8426410669184214  0.21296320623046738          1.0000   
         C         C         1.0       0.551147134933598   0.8586436669054484  0.19117567727540827          1.0000   
         H         H         1.0       0.513245110548854   0.8166863202321439  0.21763756657686048          1.0000   
         H         H         1.0       0.4950963372938222  0.8404793996146391  0.20041962591858992          1.0000   
         H         H         1.0       0.5539966444074975  0.8826634249867598  0.18173412809262682          1.0000   
         H         H         1.0       0.5402768617042726  0.8403718071916921  0.17197288428633617          1.0000   
         C         C         1.0       0.48030979545635294           0.7540600158667741 0.5105555631135007 1.0000   
         C         C         1.0       0.5143465737325545  0.7895651727338313  0.5089667643056583 1.0000   
         H         H         1.0       0.4587882391978218  0.7562862955111697  0.5237728914591819 1.0000   
         H         H         1.0       0.4871191556397045  0.7377286838464183  0.5242674567453173 1.0000   
         H         H         1.0       0.5377780768252638  0.7871451034196365  0.5054220341946158 1.0000   
         H         H         1.0       0.5177202763738988  0.7973470531046855  0.5322020291950651 1.0000   
         C         C         1.0       0.3844883808935964  0.06514935859621292           0.1501432271003633 1.0000   
         C         C         1.0       0.4010033413279074  0.05054090093410057           0.12864500677559518          1.0000   
         H         H         1.0       0.39690924667556865           0.07311178994811285          0.17152553326178308          1.0000   
         H         H         1.0       0.3939421567658367  0.08918636930091767           0.13702132786025192          1.0000   
         H         H         1.0       0.4302070938660691  0.06727505609795029           0.12907586090365278          1.0000   
         H         H         1.0       0.3928125839427813  0.053494781572402415         0.10476353466209654          1.0000   
         C         C         1.0       0.3023965968026331  0.6915611687342501  0.04213723757393645          1.0000   
         C         C         1.0       0.33983206167056695           0.7210662588981553 0.035783577986846844         1.0000   
         H         H         1.0       0.2882820841152285  0.6840777293892412  0.0187093456891807 1.0000   
         H         H         1.0       0.2904902258156671  0.7037137104580871  0.05523809874078545          1.0000   
         H         H         1.0       0.3585455483631573  0.7152162703669989  0.04799341823083206          1.0000   
         H         H         1.0       0.34586601317112736           0.7219308012152272 0.01047746293695484          1.0000   
         C         C         1.0       0.18556450160485646           0.8406724672958978 0.18815000672077925          1.0000   
         C         C         1.0       0.1864525828063023  0.851863727780904   0.2206397229532464 1.0000   
         H         H         1.0       0.16717284538087335           0.8462303704097627 0.17466883273847067          1.0000   
         H         H         1.0       0.17436525525811916           0.8125745342210041 0.18928591188751503          1.0000   
         H         H         1.0       0.16157338869964843           0.8512281387076961 0.223924295532753  1.0000   
         H         H         1.0       0.20673728317559528           0.8789283627019139 0.2240401807738638 1.0000   
         C         C         1.0       0.3312879839430196  0.8784690476461671  0.29465193697596637          1.0000   
         C         C         1.0       0.3625651668105425  0.9063485003367785  0.3132892417622459 1.0000   
         H         H         1.0       0.30777837668493185           0.8746623016415279 0.3018330708770659 1.0000   
         H         H         1.0       0.32872712799278614           0.8528990768470341 0.29869701094435447          1.0000   
         H         H         1.0       0.35338471375914043           0.9017917120486364 0.33836293302720566          1.0000   
         H         H         1.0       0.3679801283199385  0.9327145006087635  0.30741258906324653          1.0000   
         C         C         1.0       0.5715497767782914  0.8748440294038761  0.10587536180578688          1.0000   
         C         C         1.0       0.5580793951255205  0.8865751640601099  0.08044356760922326          1.0000   
         H         H         1.0       0.5601195819579591  0.8775880978002742  0.12605860024817447          1.0000   
         H         H         1.0       0.600528844115353   0.892679817957001   0.1104172350876479 1.0000   
         H         H         1.0       0.5747927485400549  0.9152214948274766  0.08029012804627395          1.0000   
         H         H         1.0       0.5623718214251155  0.8786304008054394  0.05776016992863832          1.0000   
         C         C         1.0       0.7048557057979629  0.9720705503231509  0.48384534139409685          1.0000   
         C         C         1.0       0.6893176534487901  0.9916580368059685  0.46719055217259686          1.0000   
         H         H         1.0       0.7064245377892528  0.9542930639483614  0.46675510465475345          1.0000   
         H         H         1.0       0.7336227156716567  0.9901173727415442  0.4883946644030043 1.0000   
         H         H         1.0       0.704767296233324   0.00107839829508527           0.4476402448805084 1.0000   
         H         H         1.0       0.6957475493263849  0.016623984398004943         0.4794354300617725 1.0000   
         C         C         1.0       0.8352272386008127  0.913995944424714   0.7493893185387516 1.0000   
         C         C         1.0       0.8004832810737401  0.893069525090087   0.7312770585230174 1.0000   
         H         H         1.0       0.8435382727453232  0.8950828228345727  0.7531442348793049 1.0000   
         H         H         1.0       0.8315002005161504  0.9218319026175723  0.7723767086813856 1.0000   
         H         H         1.0       0.7844739150753939  0.8686026853349578  0.7424146633687482 1.0000   
         H         H         1.0       0.8040105559882891  0.88273731552265    0.708336142486166  1.0000   
         C         C         1.0       0.6319694816406869  0.6922843110635062  0.010743608459417464         1.0000   
         C         C         1.0       0.6030866349763918  0.6524073696585658  0.012369377466376008         1.0000   
         H         H         1.0       0.6563373141465306  0.6935467517100242  0.012263182098158685         1.0000   
         H         H         1.0       0.6321917836577481  0.7018013657668348  0.9880565728455526 1.0000   
         H         H         1.0       0.6132670076202597  0.640508814703181   0.9958151452177155 1.0000   
         H         H         1.0       0.6043472120385925  0.641246392387786   0.03498066309214048          1.0000   
         C         C         1.0       0.5760261317465057  0.8294093696526189  0.8208025616021615 1.0000   
         C         C         1.0       0.6141748106957517  0.837404092704693   0.8162847226715777 1.0000   
         H         H         1.0       0.577068172347055   0.847767202976065   0.8378571333091949 1.0000   
         H         H         1.0       0.5660551938376339  0.8329115086771093  0.7986472061338287 1.0000   
         H         H         1.0       0.6128293171983509  0.8126227658101007  0.8116286726907433 1.0000   
         H         H         1.0       0.6271034301173627  0.8449182255253683  0.8375811102810097 1.0000   
         C         C         1.0       0.29310384123516103           0.9119019526054085 0.5465829906504905 1.0000   
         C         C         1.0       0.25635839063201615           0.8798546682440124 0.5376522974613314 1.0000   
         H         H         1.0       0.2880208888099708  0.9254941263796237  0.5667932892803056 1.0000   
         H         H         1.0       0.3032179461872034  0.9299805845420743  0.5277536418569442 1.0000   
         H         H         1.0       0.2474631719929923  0.8616697508375933  0.5586822259266303 1.0000   
         H         H         1.0       0.23610644430148456           0.8865592390927575 0.5404848690576987 1.0000   
         C         C         1.0       0.5163234475102668  0.9630036339397011  0.5425395457413961 1.0000   
         C         C         1.0       0.5439919284848905  0.9752050606100688  0.5673779846668721 1.0000   
         H         H         1.0       0.5269692344943974  0.955009898190376   0.5227643758721433 1.0000   
         H         H         1.0       0.5128545432463385  0.9838154418154181  0.5337569709892861 1.0000   
         H         H         1.0       0.5330112651558921  0.980630723356794   0.5873439298328724 1.0000   
         H         H         1.0       0.5661225659237107  0.001746451286417816         0.5591815080464195 1.0000   
         C         C         1.0       0.3523324344674116  0.9495058072392462  0.7372155794482272 1.0000   
         C         C         1.0       0.3776672522680985  0.9880887185541274  0.7313393531985649 1.0000   
         H         H         1.0       0.3271467453397232  0.9393188438546404  0.7279245981814629 1.0000   
         H         H         1.0       0.34544818368455665           0.9469909786245007 0.7626750750515819 1.0000   
         H         H         1.0       0.3994481193135054  0.9903174846098871  0.7172894231299011 1.0000   
         H         H         1.0       0.389594766819042   0.003282184615536421         0.7526125595513342 1.0000   
         C         C         1.0       0.47821695177618084           0.9772632867514249 0.9851243264808549 1.0000   
         C         C         1.0       0.47483099462746003           0.9750462291127188 0.9502693213143175 1.0000   
         H         H         1.0       0.5060187702524054  0.989206463393816   0.9925295561635092 1.0000   
         H         H         1.0       0.4718871674710431  0.9975925547794727  0.9950164172424746 1.0000   
         H         H         1.0       0.49123754502496    0.9995555959178157  0.9411695029160784 1.0000   
         H         H         1.0       0.44988555364137767           0.9692594110649099 0.9418032819789207 1.0000   
         C         C         1.0       0.7327089001688263  0.05897291823185154           0.7978833083290667 1.0000   
         C         C         1.0       0.7286456375136828  0.0648727330828525  0.7636051973113749 1.0000   
         H         H         1.0       0.7488527734393241  0.0828863188728614  0.8097469461456981 1.0000   
         H         H         1.0       0.7492542185339452  0.04765668248258364           0.7988380089625062 1.0000   
         H         H         1.0       0.7519548614944076  0.08314617175586805           0.7511386346318921 1.0000   
         H         H         1.0       0.7113769201138075  0.07513243122093281           0.758853038858491  1.0000   
         C         C         1.0       0.48808180427879183           0.7718415004029854 0.03170969307173466          1.0000   
         C         C         1.0       0.5214837367632856  0.8045188049298666  0.020352280484786878         1.0000   
         H         H         1.0       0.4653525650450501  0.7742971481430747  0.02795001056979518          1.0000   
         H         H         1.0       0.48830026263921905           0.773410953350017  0.05644881397734314          1.0000   
         H         H         1.0       0.5345220584080654  0.8238472716029938  0.039672934196584464         1.0000   
         H         H         1.0       0.5423617258392649  0.7983806301800139  0.015343583304701314         1.0000   
         C         C         1.0       0.5366867095232021  0.9021276778938289  0.6819612575232864 1.0000   
         C         C         1.0       0.5657859519029653  0.9407900776621195  0.6897357974173784 1.0000   
         H         H         1.0       0.5435738286091689  0.884331859520927   0.6914467112890648 1.0000   
         H         H         1.0       0.5352875470336549  0.8974232922436819  0.6559429282290269 1.0000   
         H         H         1.0       0.5585602410006997  0.958752829939106   0.6800349322061665 1.0000   
         H         H         1.0       0.5901940533086245  0.9473961505753387  0.6770767981283287 1.0000   
         C         C         1.0       0.1574386590290283  0.4887693914587939  0.05126497877088432          1.0000   
         C         C         1.0       0.17283199901248192           0.4676217293940654 0.06285839772108393          1.0000   
         H         H         1.0       0.13098964407527872           0.4693366835349695 0.04259268544956085          1.0000   
         H         H         1.0       0.15363586852181363           0.5036667949198145 0.06898992314665642          1.0000   
         H         H         1.0       0.1504491508596414  0.44533099882827737           0.07770673796712946          1.0000   
         H         H         1.0       0.17697407253569933           0.45351404074501434          0.045549240205305486         1.0000   
         C         C         1.0       0.3017593074127118  0.7132380756256651  0.7686757005818478 1.0000   
         C         C         1.0       0.3189971914594935  0.7118399949737294  0.7983288037624537 1.0000   
         H         H         1.0       0.27403882960696624           0.7057236978820697 0.7734930782565919 1.0000   
         H         H         1.0       0.29673882099104526           0.6910476622148187 0.7540805272491786 1.0000   
         H         H         1.0       0.3246973547215879  0.7331729933573764  0.8152879879750845 1.0000   
         H         H         1.0       0.34602260415300234           0.7155227221777315 0.792881747971679  1.0000   
         C         C         1.0       0.36508847869629607           0.7117623032009327 0.9447866101816965 1.0000   
         C         C         1.0       0.37307295307889854           0.7237739160297582 0.9106179218377639 1.0000   
         H         H         1.0       0.360011306392835   0.7294847623109347  0.9601445066724962 1.0000   
         H         H         1.0       0.38950928266215884           0.713459621940334  0.9538816381212848 1.0000   
         H         H         1.0       0.3782673147295616  0.7059961853879515  0.9004777270814299 1.0000   
         H         H         1.0       0.34996526517574256           0.72312179465523   0.8995517607302692 1.0000   
         C         C         1.0       0.3523084745076959  0.5004126676566918  0.014817531672137063         1.0000   
         C         C         1.0       0.3203870532986727  0.48506301447194544           0.9906902975741684 1.0000   
         H         H         1.0       0.3663273927868271  0.48572265641766166           0.015564137743871997         1.0000   
         H         H         1.0       0.34374682284544206           0.501066732509242  0.03812461648273291          1.0000   
         H         H         1.0       0.3291775992305718  0.480612925097149   0.9692420337302301 1.0000   
         H         H         1.0       0.30023191824678797           0.4592922692569916 0.9970600249037794 1.0000   
         C         C         1.0       0.35886924280980464           0.5367646007911707 0.4718516828577225 1.0000   
         C         C         1.0       0.35321946431500684           0.5428582624009332 0.4384166691131549 1.0000   
         H         H         1.0       0.38200829587234053           0.535352378801676  0.47583504646689323          1.0000   
         H         H         1.0       0.3359191092818722  0.5108960721299578  0.47538070619383943          1.0000   
         H         H         1.0       0.3247057583205253  0.5325089269950098  0.43473561675371947          1.0000   
         H         H         1.0       0.35910952477191466           0.5284097216681936 0.42244720278979514          1.0000   
         C         C         1.0       0.2887748698922152  0.7118786049967943  0.5087460319081174 1.0000   
         C         C         1.0       0.30019183486274426           0.6904673575734817 0.49121441275640104          1.0000   
         H         H         1.0       0.2729238535701788  0.7161984343605847  0.4912656759350298 1.0000   
         H         H         1.0       0.2674999161234941  0.6919954839060134  0.5242110330073128 1.0000   
         H         H         1.0       0.3209565451181021  0.7083561926725109  0.4755623219469262 1.0000   
         H         H         1.0       0.2793919798550162  0.6717539459918762  0.476410652841252  1.0000   
         C         C         1.0       0.3980203094404625  0.6884653616518663  0.7383460352543011 1.0000   
         C         C         1.0       0.39219674645258923           0.6904778162815588 0.7732649160927797 1.0000   
         H         H         1.0       0.42482322017629076           0.7014648758076398 0.7313546797979311 1.0000   
         H         H         1.0       0.38820210072869593           0.7020141966742965 0.7247324776187251 1.0000   
         H         H         1.0       0.3957842384294243  0.7149798862157297  0.7778350472811777 1.0000   
         H         H         1.0       0.3637172659893026  0.6733072720622278  0.7779908169767641 1.0000   
         C         C         1.0       0.16602370202630337           0.4580654476272298 0.7246343617226361 1.0000   
         C         C         1.0       0.14638246482343598           0.47720805776863834          0.7308276375325383 1.0000   
         H         H         1.0       0.15406111869642308           0.43977455375275276          0.7061161839952087 1.0000   
         H         H         1.0       0.16900101563503542           0.4468452544303988 0.7458385320359096 1.0000   
         H         H         1.0       0.12106341035894606           0.4589526609979395 0.7371831536558626 1.0000   
         H         H         1.0       0.14225024740325454           0.48918699971410684          0.7100884699714545 1.0000   
         C         C         1.0       0.5210958401978096  0.7578869838909903  0.5981553893881909 1.0000   
         C         C         1.0       0.4954221238525621  0.7348999663816723  0.6238193847718991 1.0000   
         H         H         1.0       0.5325442727591713  0.7434263248788461  0.589306400791596  1.0000   
         H         H         1.0       0.503940970094334   0.7574357854510595  0.5798655451286076 1.0000   
         H         H         1.0       0.4936739086436153  0.7529990731823032  0.6386349373311582 1.0000   
         H         H         1.0       0.508762481017147   0.7251839692096796  0.6393308078980721 1.0000   
         C         C         1.0       0.34034690565799447           0.43800784125293274          0.7028429033020345 1.0000   
         C         C         1.0       0.37886536123950404           0.44940679212379103          0.6957888756088246 1.0000   
         H         H         1.0       0.33375372206730103           0.4301104841168404 0.7271603999027465 1.0000   
         H         H         1.0       0.32132795139802034           0.4154306930000075 0.6908923453283229 1.0000   
         H         H         1.0       0.39878648883425283           0.4641802002441841 0.7134343353137453 1.0000   
         H         H         1.0       0.3868593407960635  0.46763830830669506           0.6762525247681598 1.0000   
         C         C         1.0       0.8823583704810688  0.7874615973270658  0.05557749260116305          1.0000   
         C         C         1.0       0.9162764236192051  0.7871759393492411  0.061997455385774065         1.0000   
         H         H         1.0       0.8818509206238856  0.7972133736428383  0.032888604841304396         1.0000   
         H         H         1.0       0.8776803616410505  0.8031601408410262  0.07264522128322627          1.0000   
         H         H         1.0       0.9122901940605513  0.7707970270790734  0.08267902207289302          1.0000   
         H         H         1.0       0.920109036276114   0.7714945537338699  0.044109096128197134         1.0000   
         C         C         1.0       0.8510739278840519  0.6041411293524436  0.9226221243498792 1.0000   
         C         C         1.0       0.8443598691139931  0.5876050633452219  0.9536435741073145 1.0000   
         H         H         1.0       0.8278305066879375  0.6020341390345633  0.913226409985861  1.0000   
         H         H         1.0       0.8684957021143618  0.6325909085220566  0.9232529910729451 1.0000   
         H         H         1.0       0.8667151213476184  0.5874839338869223  0.9629759549068698 1.0000   
         H         H         1.0       0.8254207911400514  0.5582779713506788  0.9490377740888015 1.0000   
         C         C         1.0       0.04562206974460162           0.5638858120711988 0.8340820524027102 1.0000   
         C         C         1.0       0.07691048600789654           0.5851076688436121 0.85469309295122   1.0000   
         H         H         1.0       0.04295755886256141           0.5388254251075917 0.8314797656015962 1.0000   
         H         H         1.0       0.051320311282465954          0.5768314201352781 0.8129916996656307 1.0000   
         H         H         1.0       0.08618478665972469           0.6132494183293133 0.8538317141425308 1.0000   
         H         H         1.0       0.07045878635186323           0.5779920580137446 0.8787198264697018 1.0000   
         C         C         1.0       0.8387065648442412  0.45082405735220504           0.16043988593902556          1.0000   
         C         C         1.0       0.8140088670427188  0.4545118161653414  0.1387216292438056 1.0000   
         H         H         1.0       0.8321812066066794  0.4522842247621732  0.1847197101789417 1.0000   
         H         H         1.0       0.8651464009095934  0.4744306620118097  0.15585118026144398          1.0000   
         H         H         1.0       0.7871251619450894  0.42932231859595077           0.1401498549142258 1.0000   
         H         H         1.0       0.8199502418722517  0.45337549985634096           0.11518134389848261          1.0000   
         C         C         1.0       0.9048773856463956  0.4669246526067859  0.025119806089638486         1.0000   
         C         C         1.0       0.8850019840298918  0.48534971915166814           0.014339298395741773         1.0000   
         H         H         1.0       0.9009115627275677  0.46143946143765713           0.05119637631520213          1.0000   
         H         H         1.0       0.9337257537300385  0.4848764889982657  0.022199936199942982         1.0000   
         H         H         1.0       0.8912062583786315  0.5077891986057229  0.029567287561412803         1.0000   
         H         H         1.0       0.856322234576668   0.46819465254716064           0.021947629739863528         1.0000   
         C         C         1.0       0.9905485278002087  0.30938846894385286           0.9721817340503356 1.0000   
         C         C         1.0       0.025059061744873438          0.34117147118134405          0.9836662004948624 1.0000   
         H         H         1.0       0.9915758821359512  0.30257298889474876           0.9487133746499157 1.0000   
         H         H         1.0       0.9859143270026298  0.2867350737599235  0.9856654794549192 1.0000   
         H         H         1.0       0.022632591123215928          0.3565681636130912 0.002645466171141475         1.0000   
         H         H         1.0       0.03283854853356749           0.36173831698697073          0.9665744427375716 1.0000   
         C         C         1.0       0.8077901086000722  0.29036100097608064           0.7403635353209936 1.0000   
         C         C         1.0       0.8192924057973172  0.28366718162089555           0.7726224478521763 1.0000   
         H         H         1.0       0.81422792380982    0.2784748192065613  0.7200878838275245 1.0000   
         H         H         1.0       0.8255136453005602  0.31900238555303106           0.7369735953229469 1.0000   
         H         H         1.0       0.8444346127813144  0.2843917731197653  0.7719177598500832 1.0000   
         H         H         1.0       0.7979450966686616  0.25682163189633783           0.77969911345952   1.0000   
         C         C         1.0       0.7340033186683034  0.25192798389741095           0.9201724843286639 1.0000   
         C         C         1.0       0.7600087464047985  0.24423661077497122           0.9052639876331994 1.0000   
         H         H         1.0       0.7476913232839163  0.28049212214825725           0.9227417856137886 1.0000   
         H         H         1.0       0.7250333718725586  0.23990298588040032           0.9437042820974662 1.0000   
         H         H         1.0       0.7618969641127827  0.24926680362970674           0.8814057942483757 1.0000   
         H         H         1.0       0.7494138675487726  0.21559389970101672           0.905368924653569  1.0000   
         C         C         1.0       0.49704444089194394           0.015408788564256646         0.8720879084919708 1.0000   
         C         C         1.0       0.4937594369076193  0.04060308117767324           0.8499592879445401 1.0000   
         H         H         1.0       0.46897360808686706           0.9940877716952481 0.8745848298884409 1.0000   
         H         H         1.0       0.5071090137605734  0.028995460005023396         0.8948422770960601 1.0000   
         H         H         1.0       0.49339474621938867           0.034304956946571735         0.8263563496891321 1.0000   
         H         H         1.0       0.468530262913243   0.036438875308935206         0.8546243946907013 1.0000   
         C         C         1.0       0.6009271208625552  0.3409127707737655  0.7308685106841812 1.0000   
         C         C         1.0       0.5787425222219708  0.34228146404220305           0.7570760338508464 1.0000   
         H         H         1.0       0.6246994347422707  0.36572996703508737           0.7260997947382353 1.0000   
         H         H         1.0       0.585830661442878   0.33728804253697253           0.7091936159939256 1.0000   
         H         H         1.0       0.5585014738081061  0.3156300660538344  0.7622110623513919 1.0000   
         H         H         1.0       0.5630376168008079  0.35090039945373797           0.7486661738690292 1.0000   
         C         C         1.0       0.6129201706750543  0.5585370412674443  0.04352272812387392          1.0000   
         C         C         1.0       0.6361586894100099  0.5983283944144797  0.04077993607924402          1.0000   
         H         H         1.0       0.5899742242295758  0.558023972753594   0.05520283451020269          1.0000   
         H         H         1.0       0.6282939548985395  0.5492890441975257  0.057861423619211476         1.0000   
         H         H         1.0       0.6308768362308732  0.6113741214358527  0.020590720734666723         1.0000   
         H         H         1.0       0.6336194166308221  0.6114524256858569  0.062062552072958306         1.0000   
         C         C         1.0       0.6968105288470846  0.3523748194332659  0.950306745691373  1.0000   
         C         C         1.0       0.7372223319241716  0.37871962582984864           0.9502298815498811 1.0000   
         H         H         1.0       0.691810841101828   0.32733509951087447           0.9419815066780096 1.0000   
         H         H         1.0       0.6838187439936415  0.34527738070666397           0.9737778408936064 1.0000   
         H         H         1.0       0.7485130443802112  0.373190880428726   0.9698073682049028 1.0000   
         H         H         1.0       0.7394837260927503  0.40337165178520745           0.9564368249992854 1.0000   
         C         C         1.0       0.5386012986491251  0.5933060467911704  0.8792270327869535 1.0000   
         C         C         1.0       0.5479566708297496  0.5760332874345245  0.8526817324365124 1.0000   
         H         H         1.0       0.5628096132684336  0.6107527279806515  0.8900502117432164 1.0000   
         H         H         1.0       0.5202421657794913  0.5735465609123692  0.8956169195990321 1.0000   
         H         H         1.0       0.5713674635891594  0.5984394938342888  0.8444350902127522 1.0000   
         H         H         1.0       0.5321691236084974  0.5698031679272583  0.8324387838717889 1.0000   
         C         C         1.0       0.5852798620344474  0.2977421328610194  0.9422952755835512 1.0000   
         C         C         1.0       0.5577798342389084  0.27208558510311437           0.9209798975864432 1.0000   
         H         H         1.0       0.6020441211681904  0.32086518039741785           0.929968722846944  1.0000   
         H         H         1.0       0.6038537868813019  0.2912842967528646  0.9489721013704127 1.0000   
         H         H         1.0       0.5470688101370227  0.2857163645634062  0.9070511579561347 1.0000   
         H         H         1.0       0.5357234375090564  0.2543812055923015  0.9344364914135211 1.0000   
         C         C         1.0       0.41520914162701944           0.3574564586394448 0.011904419671461719         1.0000   
         C         C         1.0       0.4165829828358561  0.3673236852211364  0.9775263044222247 1.0000   
         H         H         1.0       0.42252127250169674           0.3809443607319396 0.02586864174009973          1.0000   
         H         H         1.0       0.387993678258721   0.3407454464214732  0.019033799159723364         1.0000   
         H         H         1.0       0.3962384864646484  0.3750528962457541  0.9747837760440086 1.0000   
         H         H         1.0       0.4047548505793826  0.3447540814941042  0.962120975815575  1.0000   
         C         C         1.0       0.6722157830783747  0.3248197533502749  0.1523116652159223 1.0000   
         C         C         1.0       0.672447054451154   0.3073492524976384  0.12162991448327111          1.0000   
         H         H         1.0       0.6959712624348288  0.3498447936396832  0.15344484253563542          1.0000   
         H         H         1.0       0.6694207631365561  0.30867652320746614           0.17291845194241562          1.0000   
         H         H         1.0       0.6508825017198037  0.2830337370954003  0.11914024877028478          1.0000   
         H         H         1.0       0.6679404577671669  0.32085815917841914           0.10246289627788871          1.0000   
         C         C         1.0       0.6271367976796496  0.5163687862001313  0.184696601929342  1.0000   
         C         C         1.0       0.6562990007083142  0.5402812706088035  0.20756274430199223          1.0000   
         H         H         1.0       0.6282609594349541  0.5243420975029357  0.1610504986866252 1.0000   
         H         H         1.0       0.6057365977332291  0.5187918901590104  0.19458868070276966          1.0000   
         H         H         1.0       0.6528974097962132  0.5619105714308854  0.20775653117776902          1.0000   
         H         H         1.0       0.6525993093181267  0.5293296955489344  0.23011983714845372          1.0000   
         C         C         1.0       0.4378096686027216  0.1454312678553993  0.05233876301675622          1.0000   
         C         C         1.0       0.4093364492650571  0.12331267023786051           0.07735097247011778          1.0000   
         H         H         1.0       0.4289138648721126  0.1349859060858497  0.02956187712787517          1.0000   
         H         H         1.0       0.45879759429679573           0.13849712748017565          0.05695847788987818          1.0000   
         H         H         1.0       0.3996743066607172  0.09591638533133032           0.071972828883955  1.0000   
         H         H         1.0       0.4198901517907359  0.12906534504635783           0.10080010317809705          1.0000   
         C         C         1.0       0.9392413761354703  0.6329106027713766  0.21459406490709107          1.0000   
         C         C         1.0       0.9191511163453613  0.6474364241418065  0.23133442044034352          1.0000   
         H         H         1.0       0.9677426861656813  0.6494245858934469  0.21764311932382407          1.0000   
         H         H         1.0       0.9369385389692196  0.6336974483151612  0.18961313571120625          1.0000   
         H         H         1.0       0.9354497361756946  0.675669216894364   0.22767058321476663          1.0000   
         H         H         1.0       0.9197997929766405  0.6447680527863975  0.2565861623244326 1.0000   
         C         C         1.0       0.03081072978004888           0.6399812006923058 0.36563775389462805          1.0000   
         C         C         1.0       0.05967640751747716           0.640504966987004  0.34665920590878485          1.0000   
         H         H         1.0       0.04623639160992086           0.6545559698365342 0.38670107174070595          1.0000   
         H         H         1.0       0.026805548066009967          0.6602795508899606 0.35526286531562323          1.0000   
         H         H         1.0       0.05017920893623377           0.6280868820466824 0.32358358604825627          1.0000   
         H         H         1.0       0.06771923058974358           0.6229314574573381 0.3556552662168034 1.0000   
         C         C         1.0       0.6353028136954388  0.18285607028172712           0.6042428987881363 1.0000   
         C         C         1.0       0.6184948112191888  0.19420289997289059           0.5815251024256911 1.0000   
         H         H         1.0       0.6214418981090373  0.15424490127586385           0.6075330670472733 1.0000   
         H         H         1.0       0.6610225346468137  0.1917794936846885  0.5962701615014506 1.0000   
         H         H         1.0       0.6122679520243425  0.1779614541057971  0.5610804682662559 1.0000   
         H         H         1.0       0.5927707148845751  0.19033668418020167           0.5907688638899785 1.0000   
         C         C         1.0       0.49304657495648346           0.12766687302486898          0.5111115792555107 1.0000   
         C         C         1.0       0.5247581489731132  0.15459184453788608           0.5317721211438701 1.0000   
         H         H         1.0       0.4800224043677126  0.10099039940695653           0.5194374545891206 1.0000   
         H         H         1.0       0.5004159265812125  0.12639312137013117           0.48727989156772766          1.0000   
         H         H         1.0       0.5424757745019553  0.14504000047404733           0.5358580200908809 1.0000   
         H         H         1.0       0.5141059085744141  0.15604315406564384           0.5549170392512155 1.0000   
         C         C         1.0       0.46403198103982796           0.30983849830777227          0.2680085002944454 1.0000   
         C         C         1.0       0.4679573554130186  0.3321135069135691  0.2969528771719097 1.0000   
         H         H         1.0       0.4388327639522837  0.3041968361512014  0.2581628061996059 1.0000   
         H         H         1.0       0.45867140478146834           0.2853319380835145 0.2737545917603952 1.0000   
         H         H         1.0       0.447268256675417   0.31951442814311    0.31504519786791857          1.0000   
         H         H         1.0       0.464561888957426   0.3534178054131564  0.2906579097116321 1.0000   
         C         C         1.0       0.7321126676980426  0.4180704173209959  0.21129130454239056          1.0000   
         C         C         1.0       0.7065234388368788  0.4323013218266336  0.21020977367223692          1.0000   
         H         H         1.0       0.7372520913897411  0.41256820333590727           0.18719120862475577          1.0000   
         H         H         1.0       0.7166302216659778  0.3914227035586664  0.2211696481243647 1.0000   
         H         H         1.0       0.6917948941509974  0.42053107090528735           0.18877026667325117          1.0000   
         H         H         1.0       0.7186339999911034  0.4589506998795145  0.2049259654576644 1.0000   
         C         C         1.0       0.483142217398079   0.3556084780965274  0.44806526508585803          1.0000   
         C         C         1.0       0.4875419026438083  0.3309613980580564  0.42592656356022845          1.0000   
         H         H         1.0       0.4796403519334308  0.3455448786202253  0.4716103815299792 1.0000   
         H         H         1.0       0.45768991100375983           0.3554961866747392 0.44488314675057306          1.0000   
         H         H         1.0       0.49589873453947053           0.3438136965941579 0.40493388871355207          1.0000   
         H         H         1.0       0.4619925946456988  0.3066161983540211  0.42120629480360383          1.0000   
         C         C         1.0       0.6066821878390967  0.6051789197999734  0.3749454891847831 1.0000   
         C         C         1.0       0.5740138783611106  0.58714172077206    0.3534976249395372 1.0000   
         H         H         1.0       0.6306763723274336  0.6241098607073481  0.3630647541555126 1.0000   
         H         H         1.0       0.6004128202706867  0.6183423376477224  0.39330439366271414          1.0000   
         H         H         1.0       0.5530051551813664  0.5646267469508995  0.36568493595521706          1.0000   
         H         H         1.0       0.5819712626035484  0.5764958875280767  0.3346141152209056 1.0000   
         C         C         1.0       0.9655965579174542  0.7755913846200252  0.6188939664769989 1.0000   
         C         C         1.0       0.9703150154946921  0.7909118788115294  0.5871809965086302 1.0000   
         H         H         1.0       0.9561273263814333  0.7869930541569002  0.6345060847077696 1.0000   
         H         H         1.0       0.9865241190618707  0.7738951896819749  0.6293170419530042 1.0000   
         H         H         1.0       0.9775107190136492  0.778489939948565   0.569364595756021  1.0000   
         H         H         1.0       0.9425035688179285  0.7843356659663041  0.5808144425193443 1.0000   
         C         C         1.0       0.7693004400063826  0.5830955336429191  0.8314173487800791 1.0000   
         C         C         1.0       0.7639064168332841  0.5604971061384929  0.858678714205092  1.0000   
         H         H         1.0       0.7854048907552229  0.6107481788086738  0.8369272805229792 1.0000   
         H         H         1.0       0.7450258342316805  0.5804571638271292  0.8218336989771353 1.0000   
         H         H         1.0       0.7864612796172423  0.5589720093278311  0.8637863872275003 1.0000   
         H         H         1.0       0.7645553742244167  0.5763750730141947  0.8766275916547598 1.0000   
         C         C         1.0       0.8182447690571188  0.5193242208153721  0.48779476775436753          1.0000   
         C         C         1.0       0.8487158611933086  0.5334320959376954  0.5102206983406072 1.0000   
         H         H         1.0       0.8108761484664531  0.5398351782566205  0.4838896938812078 1.0000   
         H         H         1.0       0.7938406587489052  0.4951109741174657  0.492796747164006  1.0000   
         H         H         1.0       0.8526337126145006  0.5121174974452308  0.518804768499785  1.0000   
         H         H         1.0       0.8735139578218332  0.5499995281054035  0.4980639410490278 1.0000   
         C         C         1.0       0.7239107197677467  0.5792756324506104  0.5367653454755797 1.0000   
         C         C         1.0       0.7193061890552315  0.5479533612497324  0.519938707133453  1.0000   
         H         H         1.0       0.7001207868403655  0.5759309614260654  0.5477107677074496 1.0000   
         H         H         1.0       0.729241466774737   0.5969958527651965  0.5178470545069319 1.0000   
         H         H         1.0       0.7443177717120273  0.5526241742968794  0.5115275050011378 1.0000   
         H         H         1.0       0.7113278534893636  0.5266587850251723  0.5351570895235833 1.0000   
         C         C         1.0       0.7259003544771132  0.4457524931730056  0.6154237221817641 1.0000   
         C         C         1.0       0.7548426864200917  0.48317321320207246           0.6095892086516768 1.0000   
         H         H         1.0       0.6979862120810629  0.44017290640033857           0.6155432650500969 1.0000   
         H         H         1.0       0.7287680858654528  0.4391005537230543  0.6384314631618365 1.0000   
         H         H         1.0       0.7428546693487345  0.4974296150302255  0.5987270141189376 1.0000   
         H         H         1.0       0.7751453875021854  0.4866439740017214  0.5922461103625121 1.0000   
         C         C         1.0       0.7166456194356329  0.38265300930264307           0.7264246498792584 1.0000   
         C         C         1.0       0.7176158995969103  0.36583366092902075           0.6960530653562399 1.0000   
         H         H         1.0       0.6882441376717859  0.367626083510892   0.734912969599296  1.0000   
         H         H         1.0       0.7230133697719403  0.4097935208563862  0.7212501187558927 1.0000   
         H         H         1.0       0.6971531516974744  0.3662273077556429  0.6801588145973574 1.0000   
         H         H         1.0       0.7051393016573061  0.3383351943746877  0.6985569693721452 1.0000   
         C         C         1.0       0.9833551613735312  0.44342700586701966           0.45851679700961523          1.0000   
         C         C         1.0       0.955570547378324   0.42475387311377866           0.4339049310316783 1.0000   
         H         H         1.0       0.9938196973006665  0.4721116597497642  0.45999107100839187          1.0000   
         H         H         1.0       0.008148576310716082          0.44553258152112096          0.45101851148074984          1.0000   
         H         H         1.0       0.9332494393670754  0.3981960292069024  0.44007689738766453          1.0000   
         H         H         1.0       0.9675727034258861  0.41668559455341236           0.41676247458844984          1.0000   
         C         C         1.0       0.8613624258532752  0.44537367239538195           0.5103561786358284 1.0000   
         C         C         1.0       0.8504061018406518  0.4094739394947943  0.49632719833324446          1.0000   
         H         H         1.0       0.8875412708296415  0.46527768176260503           0.5018915747357711 1.0000   
         H         H         1.0       0.844271285546276   0.4529391137223661  0.49874657556138274          1.0000   
         H         H         1.0       0.8627242463705946  0.3959236696979633  0.5070020617827966 1.0000   
         H         H         1.0       0.860055620270966   0.4120131258403043  0.4724426116729993 1.0000   
         C         C         1.0       0.9394420462382829  0.5085683046644601  0.7412873188419196 1.0000   
         C         C         1.0       0.9221075802423805  0.514733000137631   0.7696785458063324 1.0000   
         H         H         1.0       0.954685534015969   0.5343765701197464  0.7323718029138419 1.0000   
         H         H         1.0       0.9578033622907958  0.5001103243549814  0.7486789013978076 1.0000   
         H         H         1.0       0.9429052320065986  0.5303091269134204  0.7843871853289723 1.0000   
         H         H         1.0       0.9075719379741903  0.48913497018464086           0.7813839055148457 1.0000   
         C         C         1.0       0.0007007105073839615         0.3025227917380641 0.6157672023401186 1.0000   
         C         C         1.0       0.9918518549847471  0.2712982272332251  0.5955931616802448 1.0000   
         H         H         1.0       0.030212179181061005          0.32206917598463736          0.6147322531832791 1.0000   
         H         H         1.0       0.9942465480225655  0.29463832672702095           0.6407489965533459 1.0000   
         H         H         1.0       0.9675451834367675  0.25002820144840454           0.6044382294910512 1.0000   
         H         H         1.0       0.9809331525097015  0.27559924268163133           0.5748444309995634 1.0000   
         C         C         1.0       0.8082878710048947  0.19012241051927206           0.19342275168380968          1.0000   
         C         C         1.0       0.8339625358324682  0.21189307442493963           0.168504144563371  1.0000   
         H         H         1.0       0.8142858310911032  0.17150323932075975           0.20224267511723965          1.0000   
         H         H         1.0       0.7809412422403603  0.17356174385531942           0.18203799717690555          1.0000   
         H         H         1.0       0.8619194216895332  0.22331719993886964           0.17669266402990588          1.0000   
         H         H         1.0       0.8289082702532337  0.1956058033491063  0.14828795026013505          1.0000   
         C         C         1.0       0.6998649154015913  0.3242717777810086  0.27458466166854706          1.0000   
         C         C         1.0       0.6828117356464465  0.31430303317285596           0.3065533775788223 1.0000   
         H         H         1.0       0.7089220180387342  0.35141650417692427           0.2709088514460335 1.0000   
         H         H         1.0       0.6833385885692791  0.31434064026044417           0.25455134861590034          1.0000   
         H         H         1.0       0.6994626156943637  0.3181953464971858  0.32629434512724853          1.0000   
         H         H         1.0       0.6640641423595051  0.28630217347885956           0.3072754940506759 1.0000   
         C         C         1.0       0.7680341421461805  0.2365273646925869  0.48867718341841293          1.0000   
         C         C         1.0       0.8077616973116751  0.2483675711280741  0.4826628565132278 1.0000   
         H         H         1.0       0.7657966348553806  0.25892467387821627           0.4981701350259597 1.0000   
         H         H         1.0       0.7578381396094833  0.2190296943124872  0.5079174194382048 1.0000   
         H         H         1.0       0.8121655606966814  0.226659953038546   0.479265460761348  1.0000   
         H         H         1.0       0.8160047924191042  0.2612119727092328  0.4604740767727963 1.0000   
         C         C         1.0       0.5728095876681107  0.2221657774139081  0.32772355253166024          1.0000   
         C         C         1.0       0.5777875480815605  0.1908161614423592  0.3272580643677129 1.0000   
         H         H         1.0       0.5491483002061106  0.21595815974341528           0.3162844218194895 1.0000   
         H         H         1.0       0.5938523449677121  0.24387219770318105           0.31375222047759077          1.0000   
         H         H         1.0       0.577043464506827   0.1814487957515226  0.3041378659965035 1.0000   
         H         H         1.0       0.5586746656385522  0.166856302074639   0.337764505525413  1.0000   
         C         C         1.0       0.9552710013398255  0.40003632325016114           0.25651711938955235          1.0000   
         C         C         1.0       0.9597533102486195  0.429990016229248   0.2358611740702115 1.0000   
         H         H         1.0       0.9711182806999649  0.4118691852562469  0.2771365986200866 1.0000   
         H         H         1.0       0.9680852714804877  0.38670742323193263           0.24582274718608263          1.0000   
         H         H         1.0       0.9550603361732692  0.4195249794751197  0.2117616634106158 1.0000   
         H         H         1.0       0.9887802671052801  0.45006315876709985           0.2352912364975377 1.0000   
         C         C         1.0       0.62778653773891    0.0688403632580867  0.3091833333542164 1.0000   
         C         C         1.0       0.5929725673650326  0.066988526686587   0.29812976975234673          1.0000   
         H         H         1.0       0.6434967553070953  0.0650227692101248  0.29024700607796605          1.0000   
         H         H         1.0       0.6226925270767516  0.049596169067804195         0.3269027856889454 1.0000   
         H         H         1.0       0.5971360209941682  0.07697858866196819           0.2742833845738299 1.0000   
         H         H         1.0       0.5854316574736271  0.0823522393557813  0.31265051509192177          1.0000

