data_0

_chemical_formula_sum                   'C1600 H1280'
_cell_length_a                          56.673343966190274
_cell_length_b                          58.03282280473026
_cell_length_c                          44.73949986385759
_cell_angle_alpha                       99.3834495200211
_cell_angle_beta                        81.66109474645387
_cell_angle_gamma                       119.87116769325449
_space_group_name_H-M_alt               'P 1'
_space_group_IT_number                  1
loop_
  _space_group_symop_operation_xyz
         'x, y, z' 
loop_
  _atom_site_type_symbol
  _atom_site_label
  _atom_site_symmetry_multiplicity
  _atom_site_fract_x
  _atom_site_fract_y
  _atom_site_fract_z
  _atom_site_occupancy
         C         C         1.0       0.45576354181883183           0.40738508716939736          0.4567442979518511 1.0000   
         C         C         1.0       0.4818855866097218  0.4157910033851388  0.4430806260250846 1.0000   
         C         C         1.0       0.5012495823402482  0.4426102764593666  0.4423591888370323 1.0000   
         C         C         1.0       0.4946687381067511  0.4624809694021707  0.4553413626295947 1.0000   
         C         C         1.0       0.4670820196274874  0.4526201396596215  0.46627793733704453          1.0000   
         C         C         1.0       0.44835865314754364           0.4263966628799378 0.4710396878143448 1.0000   
         H         H         1.0       0.48829851074159003           0.3999190789069803 0.43616304913876874          1.0000   
         H         H         1.0       0.5227209455443638  0.4481865133845036  0.4351730738337076 1.0000   
         H         H         1.0       0.46118306037283635           0.46707164290561604          0.4790688236542167 1.0000   
         H         H         1.0       0.42803602874760543           0.4213299636169766 0.47979095151618073          1.0000   
         C         C         1.0       0.482966397290072   0.5040589659221608  0.4375861897121282 1.0000   
         C         C         1.0       0.5054264253389823  0.5127684318051217  0.45512648535823746          1.0000   
         C         C         1.0       0.48541383712967495           0.026935780497924663         0.4757684801665824 1.0000   
         C         C         1.0       0.47618810787576227           0.04523962750112751          0.4738817362241641 1.0000   
         C         C         1.0       0.4534809003682082  0.03715693889375292           0.4597684440967994 1.0000   
         C         C         1.0       0.439907624783231   0.010915681244214142         0.4453665947621763 1.0000   
         C         C         1.0       0.5167426259511967  0.494168928689908   0.4622038442405988 1.0000   
         C         C         1.0       0.5433249295445532  0.5035546546967926  0.43962142821445516          1.0000   
         C         C         1.0       0.01301429363407782           0.005867475834205764         0.4342378964655331 1.0000   
         C         C         1.0       0.03716839519717921           0.017084113385414677         0.41553007823616217          1.0000   
         C         C         1.0       0.03832404745457834           0.0035843773689550025        0.38830603657541835          1.0000   
         C         C         1.0       0.9960070770559006  0.47166793155271075           0.37168749757723446          1.0000   
         C         C         1.0       0.5383489931949279  0.49472678898311173           0.40900459631504327          1.0000   
         C         C         1.0       0.5011945558189128  0.49933706541818235           0.5195460295548193 1.0000   
         C         C         1.0       0.4996470838746486  0.49532881651341987           0.5488961631779175 1.0000   
         C         C         1.0       0.5134142619924772  0.48300784784753953           0.555401538899741  1.0000   
         C         C         1.0       0.5333792872872493  0.4821296631804342  0.5344319532362143 1.0000   
         C         C         1.0       0.5346569889261726  0.4870558359865492  0.5057957002446921 1.0000   
         C         C         1.0       0.5189870827960723  0.4956185238413592  0.4971655634616726 1.0000   
         C         C         1.0       0.5089889951998079  0.4750470655606064  0.5881976341250569 1.0000   
         C         C         1.0       0.4227927087136779  0.44205545408613994           0.6165240126612505 1.0000   
         C         C         1.0       0.44109352557007286           0.45918382985452433          0.6374069207900366 1.0000   
         C         C         1.0       0.4687942373466056  0.4684232012767443  0.6299719527526428 1.0000   
         C         C         1.0       0.4770967149884344  0.46302496235582713           0.6000729218009523 1.0000   
         C         C         1.0       0.4570322085728066  0.44508622272932746           0.5801850423514231 1.0000   
         C         C         1.0       0.43080532247946707           0.43313778759514565          0.5892053286471738 1.0000   
         C         C         1.0       0.5276532927941411  0.5032826790616453  0.6056633760188846 1.0000   
         C         C         1.0       0.9966743923606521  0.4971186156247315  0.5983462039114034 1.0000   
         C         C         1.0       0.023030088422995705          0.023412102672010316         0.6197261242757104 1.0000   
         C         C         1.0       0.0157815758971991  0.04313898577361748           0.627217657893097  1.0000   
         C         C         1.0       0.5006488227611695  0.04033962790812107           0.6423149763177513 1.0000   
         C         C         1.0       0.5198455566070059  0.5226832062827356  0.614122468925227  1.0000   
         C         C         1.0       0.5137606749146855  0.44638147316747767           0.6246155766966807 1.0000   
         C         C         1.0       0.5079581345083486  0.421156513373372   0.6299387565927301 1.0000   
         C         C         1.0       0.49947539251306483           0.40048379902182013          0.607522665361734  1.0000   
         C         C         1.0       0.501248677939715   0.4062644655952827  0.5779338332389149 1.0000   
         C         C         1.0       0.505337378694351   0.42979687820204887           0.5722211789429256 1.0000   
         C         C         1.0       0.5122001717303222  0.45098370721208214           0.5946241197669132 1.0000   
         H         H         1.0       0.4757717130037515  0.4844592973669317  0.4253564929591845 1.0000   
         H         H         1.0       0.5036453499709336  0.0335084271943498  0.4865180901289445 1.0000   
         H         H         1.0       0.4879507310895319  0.06623826271633926           0.47946512331740115          1.0000   
         H         H         1.0       0.4243043280156547  0.005739327219276248         0.42942856709653154          1.0000   
         H         H         1.0       0.01409359132705789           0.018875260839261714         0.4568291798105182 1.0000   
         H         H         1.0       0.05372533548374873           0.035437420483531865         0.4217990326451163 1.0000   
         H         H         1.0       0.9940751354688856  0.4627006919197777  0.3494745809363737 1.0000   
         H         H         1.0       0.5183241083345458  0.48463183291626305           0.40125747522490823          1.0000   
         H         H         1.0       0.4861750503314716  0.5019661998184891  0.5115611130049831 1.0000   
         H         H         1.0       0.4850050485076918  0.4990574477610304  0.5647348866005265 1.0000   
         H         H         1.0       0.9882948805499265  0.4629488604515319  0.5327907058693611 1.0000   
         H         H         1.0       0.985825244012282   0.46022814155390757           0.4776864132078603 1.0000   
         H         H         1.0       0.43385234607247414           0.46440099704924825          0.6595556520467525 1.0000   
         H         H         1.0       0.48270848832465446           0.4825882628203078 0.6469611447817111 1.0000   
         H         H         1.0       0.4631127904880432  0.43975673154234435           0.5570706065559144 1.0000   
         H         H         1.0       0.4162052761078232  0.4202135149724502  0.5721097892083811 1.0000   
         H         H         1.0       0.004941851064541882          0.4840298793357476 0.591288516381682  1.0000   
         H         H         1.0       0.04042652633752831           0.02569369851915833          0.6276284963014617 1.0000   
         H         H         1.0       0.48953723727108384           0.05090439953536064          0.6511479382870035 1.0000   
         H         H         1.0       0.4988887345469834  0.5189955314661662  0.6133407342452087 1.0000   
         H         H         1.0       0.5148795733139172  0.4617268965031454  0.6427404546756822 1.0000   
         H         H         1.0       0.5046811295835563  0.4150826947606974  0.6522405037555277 1.0000   
         H         H         1.0       0.49754836950020603           0.3902326353359898 0.5599314850490883 1.0000   
         H         H         1.0       0.5019514408513558  0.43110003714463657           0.5498900155654263 1.0000   
         C         C         1.0       0.494143639325968   0.08879182242932392           0.9706437696788036 1.0000   
         C         C         1.0       0.5166790054024719  0.1024339434030203  0.9515752004262656 1.0000   
         C         C         1.0       0.5136802462060741  0.10119135102835887           0.9220051589672422 1.0000   
         C         C         1.0       0.4886060397030334  0.08526786824414728           0.910080090217641  1.0000   
         C         C         1.0       0.4659699461205379  0.07345382393009997           0.9307045421064463 1.0000   
         C         C         1.0       0.4685048777668333  0.07503846236244228           0.9608405706287662 1.0000   
         H         H         1.0       0.5368252419547734  0.11060385947744297           0.9568979563181711 1.0000   
         H         H         1.0       0.045314321251589164          0.12146898711199454          0.8813987909187108 1.0000   
         H         H         1.0       0.44493103629920555           0.05926354417474234          0.9251832017097993 1.0000   
         H         H         1.0       0.451462220647755   0.06185255062813141           0.9737782356440631 1.0000   
         C         C         1.0       0.449848731830696   0.0943487377724812  0.8761460448509184 1.0000   
         C         C         1.0       0.4590643784146994  0.07643903840882299           0.8635534817938532 1.0000   
         C         C         1.0       0.44560327912592157           0.056406879760765305         0.8425147078344049 1.0000   
         C         C         1.0       0.42142330737687755           0.05230451124441935          0.8362120198636285 1.0000   
         C         C         1.0       0.4103256962063343  0.06877321423133037           0.8496974175746979 1.0000   
         C         C         1.0       0.42523192240321817           0.08987958755170376          0.8693467085642683 1.0000   
         C         C         1.0       0.487080264554574   0.08013152811792651           0.874056357664721  1.0000   
         C         C         1.0       0.4913194891952219  0.05463914824407252           0.8695552056937412 1.0000   
         C         C         1.0       0.5166051810908099  0.056985087448177964         0.8616293543169282 1.0000   
         C         C         1.0       0.04186964758894977           0.04645318163214898          0.8334615417739166 1.0000   
         C         C         1.0       0.5119396612939768  0.512703504444019   0.849901586084936  1.0000   
         C         C         1.0       0.48576283961120265           0.5102527733490538 0.8527330648307563 1.0000   
         C         C         1.0       0.47003455175877146           0.029661170973990382         0.8753820012154331 1.0000   
         C         C         1.0       0.027761575322500644          0.09927879084683726          0.7928885195280004 1.0000   
         C         C         1.0       0.03939805359549044           0.11675278989924104          0.7713676886461394 1.0000   
         C         C         1.0       0.046719742692872504          0.14321754128245948          0.7782108167692201 1.0000   
         C         C         1.0       0.041008582480616285          0.15141842494046698          0.8081180675325719 1.0000   
         C         C         1.0       0.5203712711417386  0.13106900564258334           0.8632183418009908 1.0000   
         C         C         1.0       0.508519115972196   0.10370706466770162           0.8531071665894426 1.0000   
         C         C         1.0       0.051400617380627144          0.16174768511218948          0.7520031006343084 1.0000   
         C         C         1.0       0.054857898336084586          0.11634498996635671          0.6641522557409988 1.0000   
         C         C         1.0       0.03564579690126692           0.12556545102952182          0.6715429896482088 1.0000   
         C         C         1.0       0.036213094214825714          0.14171186380850653          0.6963389430840666 1.0000   
         C         C         1.0       0.05294649606489387           0.14708921108138356          0.7185003951575408 1.0000   
         C         C         1.0       0.07138119629448852           0.1376561435880578 0.7114279925054372 1.0000   
         C         C         1.0       0.07290536770984526           0.12369585434204955          0.6847528296316857 1.0000   
         C         C         1.0       0.08088778706633573           0.18906062970280263          0.7539053633872884 1.0000   
         C         C         1.0       0.0990846863823957  0.19272251931395817           0.7737075110689651 1.0000   
         C         C         1.0       0.12557065587783625           0.21279248751628188          0.7737934698448641 1.0000   
         C         C         1.0       0.1353036745380054  0.2282010538652992  0.7505735809671467 1.0000   
         C         C         1.0       0.11905166422893511           0.22454458949093084          0.7280927588699958 1.0000   
         C         C         1.0       0.0913525663755258  0.2059204641440214  0.7311232236358284 1.0000   
         C         C         1.0       0.028350957591506562          0.19122634614324258          0.7684689407785298 1.0000   
         C         C         1.0       0.006860699783022125          0.193933340117617  0.7822071777642989 1.0000   
         C         C         1.0       0.4706779324039879  0.17034768445664944           0.8075921484752744 1.0000   
         C         C         1.0       0.4703219121093757  0.15021059431294612           0.78627357340818   1.0000   
         C         C         1.0       0.4947961820889343  0.150107138078015   0.7762197771322045 1.0000   
         C         C         1.0       0.026244252216368242          0.1668263166939649 0.7572849950176802 1.0000   
         H         H         1.0       0.45974910634697025           0.10876646612930578          0.8948630669854948 1.0000   
         H         H         1.0       0.44887207830655507           0.039043065714812294         0.8323668998522048 1.0000   
         H         H         1.0       0.4115326663696503  0.03552949622583738           0.8189457253574837 1.0000   
         H         H         1.0       0.4165394538907976  0.10127527087096566           0.8845888319744972 1.0000   
         H         H         1.0       0.04976468308650511           0.0854314654939197 0.8431736466552379 1.0000   
         H         H         1.0       0.06380546957453963           0.053928395032092215         0.8290391428824706 1.0000   
         H         H         1.0       0.46939379133676123           0.49216288525713336          0.8593186295742572 1.0000   
         H         H         1.0       0.45090312781592595           0.02685241821091754          0.8836597086743991 1.0000   
         H         H         1.0       0.5034778957945133  0.07547656421178761           0.8131692979224314 1.0000   
         H         H         1.0       0.040782416043479146          0.10767393211245549          0.7484850574852597 1.0000   
         H         H         1.0       0.0464656488064181  0.17209255996367653           0.8151536138013897 1.0000   
         H         H         1.0       0.5172478192823838  0.13613714189542148           0.887324418977436  1.0000   
         H         H         1.0       0.021396435947613472          0.1205983279677103 0.6546680746403017 1.0000   
         H         H         1.0       0.021170003281729723          0.14790307778245934          0.6988058379204485 1.0000   
         H         H         1.0       0.08597114119433719           0.14220351918746887          0.7273471991382181 1.0000   
         H         H         1.0       0.088827866904212   0.11866572349023195           0.6808391785635346 1.0000   
         H         H         1.0       0.09447326363321351           0.1798828310644129 0.7908373625209142 1.0000   
         H         H         1.0       0.13762807591120238           0.21448975234992196          0.7918033554714089 1.0000   
         H         H         1.0       0.12907834800802984           0.2364364091987285 0.7086601156084521 1.0000   
         H         H         1.0       0.07939401807067069           0.20468217133329517          0.712902465992359  1.0000   
         H         H         1.0       0.047391488005100464          0.20891969528845178          0.7691860022533353 1.0000   
         H         H         1.0       0.009201347093074564          0.2130613465063767 0.7930002501490908 1.0000   
         H         H         1.0       0.4533051193417758  0.13567205914887143           0.7760642743698297 1.0000   
         H         H         1.0       0.49522582003384413           0.13399478803863102          0.7586770043147407 1.0000   
         C         C         1.0       0.5042583016139902  0.37153919510931643           0.6677128239555112 1.0000   
         C         C         1.0       0.9999998064573232  0.3831399761914675  0.6600760100141729 1.0000   
         C         C         1.0       0.0017614577635440233         0.38586737779198227          0.6903252818866998 1.0000   
         C         C         1.0       0.4970214424485455  0.3768426996762949  0.7306648936742023 1.0000   
         C         C         1.0       0.47493223258345846           0.36282184372798026          0.7132819172924714 1.0000   
         C         C         1.0       0.4781881641049878  0.36045673637656617           0.6824675971281294 1.0000   
         H         H         1.0       0.018438770624120603          0.39059906194474925          0.6446641451809815 1.0000   
         H         H         1.0       0.020940202659692354          0.39285703151187934          0.6993278890932515 1.0000   
         H         H         1.0       0.4558092804037411  0.35422340026952714           0.7237647135893099 1.0000   
         H         H         1.0       0.4609252021314006  0.349202653718305   0.6688638967282639 1.0000   
         C         C         1.0       0.45325686091987927           0.39000928812659097          0.7713739371551344 1.0000   
         C         C         1.0       0.46338073122612233           0.3768503401075322 0.7834043911961294 1.0000   
         C         C         1.0       0.4532070621716955  0.36869521444518877           0.8114821981706725 1.0000   
         C         C         1.0       0.43375304553528676           0.374116574600859  0.8289541099860382 1.0000   
         C         C         1.0       0.4258825828079274  0.38917832579517475           0.817906316943103  1.0000   
         C         C         1.0       0.43283022606929933           0.39506299828271535          0.7866431500628723 1.0000   
         C         C         1.0       0.4929540320073028  0.38095372765034996           0.7675387595425991 1.0000   
         C         C         1.0       0.0026336350998743202         0.40805723614745315          0.7585333950087961 1.0000   
         C         C         1.0       0.01449346766336775           0.4149893579115588 0.7866346717533126 1.0000   
         C         C         1.0       0.02549905875598834           0.44076681382904515          0.8017990958540948 1.0000   
         C         C         1.0       0.02271078314997126           0.4595021882029728 0.7896369711597708 1.0000   
         C         C         1.0       0.01274494473643275           0.4540058102567442 0.7621381036375914 1.0000   
         C         C         1.0       0.522502016398568   0.432982094427439   0.7665024755466401 1.0000   
         C         C         1.0       0.4774790052523648  0.33130879690654225           0.7754067942412731 1.0000   
         C         C         1.0       0.4805214586845524  0.3151339846670678  0.7911561006860508 1.0000   
         C         C         1.0       0.006715941376425884          0.3246719665231673 0.773764353380571  1.0000   
         C         C         1.0       0.026430070751519423          0.3475406726773333 0.7609364768085103 1.0000   
         C         C         1.0       0.018968998144202835          0.3631672598474017 0.7492042558412115 1.0000   
         C         C         1.0       0.49792693965583285           0.3583416260447495 0.7751047426693927 1.0000   
         C         C         1.0       0.014473398730580667          0.3115468901327736 0.7970188953645192 1.0000   
         C         C         1.0       0.483196287133306   0.357264750805205   0.896084518142863  1.0000   
         C         C         1.0       0.46224108054555413           0.3326884995873448 0.8836992601109989 1.0000   
         C         C         1.0       0.46840882763076025           0.3162773594279189 0.8633865859651669 1.0000   
         C         C         1.0       0.008197740354613414          0.3258529554651626 0.828396412935909  1.0000   
         C         C         1.0       0.02983673185299555           0.35082377468341286          0.8382264466797561 1.0000   
         C         C         1.0       0.025289306514446552          0.3671012914367068 0.8600641890285662 1.0000   
         C         C         1.0       0.044721011246531314          0.3139136100711871 0.7912299826212167 1.0000   
         C         C         1.0       0.05880259592478032           0.3129607230431011 0.7637631854157458 1.0000   
         C         C         1.0       0.08265781747563444           0.31209405392546885          0.7609328364777398 1.0000   
         C         C         1.0       0.09461683045131015           0.3139488993371302 0.7870717423361353 1.0000   
         C         C         1.0       0.07911652027281499           0.31152948094734556          0.8136323336467496 1.0000   
         C         C         1.0       0.054733358439060416          0.3112362464624764 0.8157689305381702 1.0000   
         C         C         1.0       0.4713239409884197  0.2604216581900961  0.845981737241913  1.0000   
         C         C         1.0       0.4546714975143537  0.23229200711588283           0.8412902162354391 1.0000   
         C         C         1.0       0.45465943680548554           0.21952898433760143          0.8122401894365326 1.0000   
         C         C         1.0       0.4706186152853005  0.235581109248334   0.7885146102140156 1.0000   
         C         C         1.0       0.4853938375186088  0.2626416392932192  0.7946347378185161 1.0000   
         C         C         1.0       0.4861595567867047  0.27499610469338553           0.822611841377196  1.0000   
         H         H         1.0       0.46466226799418553           0.3996327403965813 0.7506652505523318 1.0000   
         H         H         1.0       0.46236849975086325           0.36099282208970396          0.8216573660382466 1.0000   
         H         H         1.0       0.42556185407068375           0.36738201769677276          0.8514092832514127 1.0000   
         H         H         1.0       0.4269369064675891  0.40693531606545996           0.7778542131678179 1.0000   
         H         H         1.0       0.012618118175494917          0.3993322129800972 0.7977265117584715 1.0000   
         H         H         1.0       0.0313294031855853  0.4437393923142525  0.8249110393575403 1.0000   
         H         H         1.0       0.016032135166463367          0.4705529361858292 0.7519964785426207 1.0000   
         H         H         1.0       0.5183487172988852  0.43097253916267275           0.741977880904262  1.0000   
         H         H         1.0       0.45781309151407207           0.3260963765875541 0.7676185287121554 1.0000   
         H         H         1.0       0.4621117299073226  0.2970102054935537  0.7938545288147558 1.0000   
         H         H         1.0       0.047172133834771264          0.3527924118995625 0.7620200912423114 1.0000   
         H         H         1.0       0.034490419709040133          0.3827212194443075 0.7453249316702166 1.0000   
         H         H         1.0       0.44149303574835747           0.32847877226702704          0.88902669486267   1.0000   
         H         H         1.0       0.451836485648086   0.29846561112202563           0.8526127101625994 1.0000   
         H         H         1.0       0.04989390656676194           0.360142346931881  0.8273716868818674 1.0000   
         H         H         1.0       0.041108769347059954          0.38730183685690417          0.8669391138954945 1.0000   
         H         H         1.0       0.05152886297465129           0.31251480324622993          0.7436140240431559 1.0000   
         H         H         1.0       0.09434967115439358           0.3128136169456386 0.7397426922055326 1.0000   
         H         H         1.0       0.08627738727117684           0.31127156120320687          0.8344103849374697 1.0000   
         H         H         1.0       0.042832165461198515          0.3102328978875939 0.8376874409616072 1.0000   
         H         H         1.0       0.47161290675270956           0.26924741783215966          0.8687399491726298 1.0000   
         H         H         1.0       0.444097208456492   0.2204924620133094  0.8599950904409072 1.0000   
         H         H         1.0       0.4658975957919897  0.22438738419160162           0.7656171865116528 1.0000   
         H         H         1.0       0.9980830076704702  0.2766192464989417  0.7433345455948741 1.0000   
         C         C         1.0       0.2981334852540165  0.3947169273610903  0.8910305238205043 1.0000   
         C         C         1.0       0.2939743498604712  0.3698812657492838  0.8765843152452983 1.0000   
         C         C         1.0       0.2766194855604294  0.357860964362687   0.8532395229790287 1.0000   
         C         C         1.0       0.2640436151844919  0.37077439769897447           0.8447052303686619 1.0000   
         C         C         1.0       0.26577302808148723           0.39355111405628185          0.8611790625129784 1.0000   
         C         C         1.0       0.283178509325404   0.4056972923989084  0.8835809010151305 1.0000   
         H         H         1.0       0.306298894688387   0.3614360198880906  0.879904308726291  1.0000   
         H         H         1.0       0.2748889692459137  0.3387568841815526  0.8419698946855566 1.0000   
         H         H         1.0       0.25446798953302113           0.40200607345973616          0.8541389438101723 1.0000   
         H         H         1.0       0.2871366862332337  0.4254808571007769  0.8957501029314505 1.0000   
         C         C         1.0       0.20407700122720757           0.35543740473461505          0.8372414033834931 1.0000   
         C         C         1.0       0.22278445429740318           0.3616518344382139 0.8127569430139693 1.0000   
         C         C         1.0       0.21574545725733454           0.3649673260572927 0.7862062298918177 1.0000   
         C         C         1.0       0.18964742116871253           0.36016934318738647          0.7834445903872694 1.0000   
         C         C         1.0       0.17189920024466745           0.35460211219090476          0.8084180727728792 1.0000   
         C         C         1.0       0.17937250728206364           0.35394730102360233          0.8349192511826286 1.0000   
         C         C         1.0       0.25020663016050093           0.35972384123904316          0.8121271771536025 1.0000   
         C         C         1.0       0.23927291708407733           0.32966255751026297          0.7974255177959686 1.0000   
         C         C         1.0       0.24014601478872868           0.3231268684709357 0.7655297367008334 1.0000   
         C         C         1.0       0.22614736836310054           0.2980908413148866 0.7525322545679344 1.0000   
         C         C         1.0       0.21061252207823217           0.2782635335105983 0.7707596634913434 1.0000   
         C         C         1.0       0.21029070001155947           0.28412715120845206          0.8019386007319503 1.0000   
         C         C         1.0       0.22484992242095456           0.3097888711721696 0.8153993636520447 1.0000   
         C         C         1.0       0.27847961792908704           0.40749332820086537          0.7927514844840952 1.0000   
         C         C         1.0       0.30305426400837004           0.4268329849846768 0.780409178170173  1.0000   
         C         C         1.0       0.32517517910786864           0.42249299768856063          0.7725087573050927 1.0000   
         C         C         1.0       0.32010635614555366           0.3961199979591432 0.7695477041162403 1.0000   
         C         C         1.0       0.29619782432811487           0.37671023880982657          0.7811413420029529 1.0000   
         C         C         1.0       0.2754467377868135  0.3815150205713253  0.7937436490942975 1.0000   
         C         C         1.0       0.35542141128781435           0.44698787710936055          0.7676155000686085 1.0000   
         C         C         1.0       0.36851806095905637           0.42311203864184893          0.6707493804593093 1.0000   
         C         C         1.0       0.3521789277246498  0.43441154912047475           0.6813026956841002 1.0000   
         C         C         1.0       0.34955018635097657           0.4426406965973984 0.7104273612245844 1.0000   
         C         C         1.0       0.362072559345765   0.4387904892590523  0.7326831979841675 1.0000   
         C         C         1.0       0.37778002963189106           0.42600654902786983          0.7224254461352072 1.0000   
         C         C         1.0       0.3805061462423039  0.4183500674370166  0.6921002459405163 1.0000   
         C         C         1.0       0.3745904185947843  0.44610378719184346           0.7899862799568843 1.0000   
         C         C         1.0       0.4036031046885198  0.45882197380146666           0.7861156740519586 1.0000   
         C         C         1.0       0.4184363876194877  0.45466670639384826           0.8034990803223154 1.0000   
         C         C         1.0       0.40469605068999337           0.4386343259532155 0.8264113639103842 1.0000   
         C         C         1.0       0.3774812177308015  0.43008885167204536           0.8328559421156062 1.0000   
         C         C         1.0       0.3631963587275272  0.4357241027803017  0.8163747342116121 1.0000   
         C         C         1.0       0.37391444028066134           0.4944627213027305 0.757001305402248  1.0000   
         C         C         1.0       0.3778954510364801  0.5200285563556057  0.7634851195535385 1.0000   
         C         C         1.0       0.3712892207723153  0.52908727493674    0.791181321494432  1.0000   
         C         C         1.0       0.35893597154727136           0.5122822083252083 0.8126942653766615 1.0000   
         C         C         1.0       0.35030759823496105           0.4858667852199908 0.8048727139921635 1.0000   
         C         C         1.0       0.35891186189168917           0.4761815976810886 0.7767670652930726 1.0000   
         H         H         1.0       0.20859622206406553           0.35381906139688607          0.859009160170127  1.0000   
         H         H         1.0       0.22905924966638608           0.36537325475691335          0.76582510680631   1.0000   
         H         H         1.0       0.1837654252477004  0.36128571139304894           0.7624063458945936 1.0000   
         H         H         1.0       0.16416176015438677           0.3468469784034844 0.8531393091558696 1.0000   
         H         H         1.0       0.2520823042884039  0.34012233512287615           0.7515357931435076 1.0000   
         H         H         1.0       0.2256391988703457  0.295282261456553   0.727748705116044  1.0000   
         H         H         1.0       0.19691573997034806           0.2680495452446411 0.8162413253096288 1.0000   
         H         H         1.0       0.2230713475565603  0.31389210726758704           0.8396878207101207 1.0000   
         H         H         1.0       0.26177317821163715           0.41259956934933   0.8012782222495197 1.0000   
         H         H         1.0       0.30647692460742487           0.44629811171566125          0.781810330879135  1.0000   
         H         H         1.0       0.33608860346821506           0.3913149239190535 0.7637698201637351 1.0000   
         H         H         1.0       0.29662942321916036           0.3585572314575981 0.783362185473249  1.0000   
         H         H         1.0       0.3399702138446427  0.4346329920905743  0.6640190918737731 1.0000   
         H         H         1.0       0.33472904633115247           0.44869904793297843          0.7176248348361585 1.0000   
         H         H         1.0       0.3851598195410251  0.41872648461232737           0.7381496105310913 1.0000   
         H         H         1.0       0.39234051325264413           0.4083831348708727 0.6845251866213827 1.0000   
         H         H         1.0       0.4156670567423475  0.47070393701430485           0.7664357020876563 1.0000   
         H         H         1.0       0.4399548891289804  0.46335995744374936           0.7968468107753051 1.0000   
         H         H         1.0       0.36892784773113074           0.42135174261154235          0.8534591780345452 1.0000   
         H         H         1.0       0.3414508548118315  0.4279828524195156  0.8233185866275089 1.0000   
         H         H         1.0       0.3810165553438683  0.4898801189486412  0.7350177781532738 1.0000   
         H         H         1.0       0.3905205861825222  0.53454740332875    0.7460927008054183 1.0000   
         H         H         1.0       0.3555791754411442  0.5192313275263722  0.8367925313599653 1.0000   
         H         H         1.0       0.3381039300020856  0.47198890157470014           0.8221141837143346 1.0000   
         C         C         1.0       0.1036933848176347  0.4829171972499341  0.09719922538260793          1.0000   
         C         C         1.0       0.09613659290948563           0.5016611567561382 0.11245758617320525          1.0000   
         C         C         1.0       0.08738335248423891           0.5014567337224402 0.14288142643038743          1.0000   
         C         C         1.0       0.08668749210075356           0.482598728191062  0.15910558517840268          1.0000   
         C         C         1.0       0.09665411490567027           0.46536927723474975          0.14610302000068703          1.0000   
         C         C         1.0       0.10428690062494769           0.46615658106784474          0.11588658782116483          1.0000   
         H         H         1.0       0.09763492188585864           0.5166125300173844 0.09965944069544522          1.0000   
         H         H         1.0       0.08096424388611727           0.5158321888589575 0.15321385010209915          1.0000   
         H         H         1.0       0.09445988983682918           0.45102476391814195          0.15948711578467942          1.0000   
         H         H         1.0       0.10866641813052853           0.4505199787144422 0.1035805730077847 1.0000   
         C         C         1.0       0.03685770329823607           0.4287873499717643 0.17222955943683602          1.0000   
         C         C         1.0       0.05204149234524318           0.44762509248182414          0.1956311819085354 1.0000   
         C         C         1.0       0.0461518952433966  0.44002358995662927           0.22509512204370966          1.0000   
         C         C         1.0       0.025021087941969   0.4159034190140418  0.2307798359863922 1.0000   
         C         C         1.0       0.008014923738739153          0.39916854751697456          0.20796284310408458          1.0000   
         C         C         1.0       0.015159739233825392          0.4049646085393756 0.17836692889277786          1.0000   
         C         C         1.0       0.07085026413718669           0.4787337681375123 0.1914242715651343 1.0000   
         C         C         1.0       0.04698520223573963           0.4871487097390387 0.19814496166739146          1.0000   
         C         C         1.0       0.03903972376030981           0.4928377290065772 0.2281040719376808 1.0000   
         C         C         1.0       0.014615218275006196          0.49168694780407673          0.23646845791307725          1.0000   
         C         C         1.0       0.49324705092678167           0.4614660571077391 0.21003824784785025          1.0000   
         C         C         1.0       0.49964463832432904           0.4577647728446273 0.17943960502774176          1.0000   
         C         C         1.0       0.028331914458941763          0.47997285298430425          0.17661644815004576          1.0000   
         C         C         1.0       0.11069126279819566           0.4851955059001982 0.21743544857048308          1.0000   
         C         C         1.0       0.16177945135662514           0.0020105711368123753        0.2512254424880701 1.0000   
         C         C         1.0       0.1610466526049529  0.02561202418393963           0.25883972061839344          1.0000   
         C         C         1.0       0.1420460015549204  0.028746586822031406         0.24527841285757623          1.0000   
         C         C         1.0       0.12023834196318031           0.007222066344026502         0.2348641688503764 1.0000   
         C         C         1.0       0.09704467374424657           0.49712909102873004          0.21009081740323196          1.0000   
         C         C         1.0       0.18129443063878503           0.04943723501419997          0.2818258090633334 1.0000   
         C         C         1.0       0.11498097618280445           0.033680276727119055         0.35602126918013577          1.0000   
         C         C         1.0       0.1257708809690516  0.016652993891784026         0.3474065540747205 1.0000   
         C         C         1.0       0.14731443040548464           0.021547602855565385         0.32537553761482424          1.0000   
         C         C         1.0       0.1577789643987111  0.044153468650929076         0.310407888596075  1.0000   
         C         C         1.0       0.14697166355210212           0.061182445084722446         0.3190444128044542 1.0000   
         C         C         1.0       0.12460514889119187           0.05496292072002616          0.34001344522590177          1.0000   
         C         C         1.0       0.195313982643337   0.07883181846744378           0.2727281464129104 1.0000   
         C         C         1.0       0.20140815321911212           0.08284376632126782          0.2431797849789738 1.0000   
         C         C         1.0       0.2177149072845899  0.10815520905719612           0.23438779950539146          1.0000   
         C         C         1.0       0.230578174907243   0.12918242494972645           0.25552271375176644          1.0000   
         C         C         1.0       0.22313364704886318           0.12674097021295785          0.285412088950624  1.0000   
         C         C         1.0       0.20577263331306442           0.10097149217383883          0.29369474269453494          1.0000   
         C         C         1.0       0.21423890487227287           0.052677679339852464         0.319173302664987  1.0000   
         C         C         1.0       0.24003071757067604           0.05878315998647692          0.3251009967846645 1.0000   
         C         C         1.0       0.25807608526657594           0.059003021219677085         0.30030274846500654          1.0000   
         C         C         1.0       0.2503525743588366  0.05227629981253362           0.27073907594469176          1.0000   
         C         C         1.0       0.22511104430849727           0.04703449861259016          0.2664636548325258 1.0000   
         C         C         1.0       0.206241320022847   0.04567259225122688           0.29029145135054346          1.0000   
         H         H         1.0       0.04296725433159557           0.43360336782499403          0.14932495031961623          1.0000   
         H         H         1.0       0.054322391066687965          0.4545467065521018 0.24439346687948416          1.0000   
         H         H         1.0       0.0203261184716017  0.4123419658193758  0.2544189524747377 1.0000   
         H         H         1.0       0.0035849390976507244         0.39214481238551885          0.1617375666734149 1.0000   
         H         H         1.0       0.05150237472177161           0.4971763568187538 0.24713040606618686          1.0000   
         H         H         1.0       0.010392508254963998          0.4964819512882699 0.2610895305108378 1.0000   
         H         H         1.0       0.48463785022822947           0.4390425843840948 0.16695378255339002          1.0000   
         H         H         1.0       0.0325320960303885  0.47465939528381457           0.15227092095285172          1.0000   
         H         H         1.0       0.10234863486045491           0.4637880333972589 0.21170906848493576          1.0000   
         H         H         1.0       0.14275399613686574           0.4894190303837237 0.24085752410308395          1.0000   
         H         H         1.0       0.1425581739161725  0.04746416292538584           0.2473829662206128 1.0000   
         H         H         1.0       0.10691876918519343           0.012491491503111952         0.2286632577002289 1.0000   
         H         H         1.0       0.11583676860413113           0.9981056225044693 0.35606537323930615          1.0000   
         H         H         1.0       0.15296782314518276           0.0055625724856571525        0.3170480026123081 1.0000   
         H         H         1.0       0.15589235310933736           0.07929695713400504          0.30856012845510966          1.0000   
         H         H         1.0       0.11376429376703186           0.06659173202599127          0.34526112241791485          1.0000   
         H         H         1.0       0.19131786304304835           0.0661900571680898 0.22559540084846225          1.0000   
         H         H         1.0       0.2205163806607608  0.11071202727584738           0.21093745101251357          1.0000   
         H         H         1.0       0.23164165776036189           0.14451363844945578          0.3031911031557761 1.0000   
         H         H         1.0       0.2022220608463304  0.09863197376640467           0.3171633784990446 1.0000   
         H         H         1.0       0.20465151339651527           0.05914129690070967          0.33903620771351445          1.0000   
         H         H         1.0       0.24716818299815674           0.06722643972351837          0.34768935076760604          1.0000   
         H         H         1.0       0.26772477230847946           0.057965372424223845         0.2525973318017136 1.0000   
         H         H         1.0       0.22119110305113326           0.04356025777762353          0.24196994820824483          1.0000   
         C         C         1.0       0.38437110564444893           0.288582781374451  0.14943541103176775          1.0000   
         C         C         1.0       0.36526896396621306           0.26304430659147526          0.15367105953558238          1.0000   
         C         C         1.0       0.36483514107150283           0.2512525500202658 0.1780607281127515 1.0000   
         C         C         1.0       0.38440594302461706           0.26461549690627234          0.19954548673543077          1.0000   
         C         C         1.0       0.4058195247543127  0.2891907774543366  0.19215666308084664          1.0000   
         C         C         1.0       0.40578564781010196           0.30229128781164394          0.16885442661363023          1.0000   
         H         H         1.0       0.3495279439220256  0.25134999579906464           0.13654052551503762          1.0000   
         H         H         1.0       0.34900567361463497           0.23062807411380218          0.17930275544996707          1.0000   
         H         H         1.0       0.42411336442623065           0.2979774180571947 0.2040798253095123 1.0000   
         H         H         1.0       0.42191582858885124           0.32284287322494226          0.16722060547778572          1.0000   
         C         C         1.0       0.4284302157697105  0.2508583205582732  0.20222159194832603          1.0000   
         C         C         1.0       0.40830519910344076           0.2432655328548359 0.22582286091488207          1.0000   
         C         C         1.0       0.4119610602411627  0.23146961769940944           0.24680392167145154          1.0000   
         C         C         1.0       0.43349969493984014           0.22597442894225467          0.24513523469563886          1.0000   
         C         C         1.0       0.4539494699085429  0.23419015793130632           0.22144722729239358          1.0000   
         C         C         1.0       0.45184117694403875           0.24798631893442893          0.20107211643064038          1.0000   
         C         C         1.0       0.38474164853868387           0.25168799451567203          0.22919372107933617          1.0000   
         C         C         1.0       0.3564173315264218  0.22426615473622394           0.23415630338917148          1.0000   
         C         C         1.0       0.3396586603029064  0.21928222695346014           0.2610341403452199 1.0000   
         C         C         1.0       0.3163768983937157  0.19615637885991474           0.266053540281717  1.0000   
         C         C         1.0       0.3091272361373325  0.1747781016919265  0.2427757083920107 1.0000   
         C         C         1.0       0.3264655377685274  0.17817179194411703           0.2162437319885411 1.0000   
         C         C         1.0       0.34984532633503324           0.20233783866322994          0.21263564969707796          1.0000   
         C         C         1.0       0.40609881067062226           0.28331039825462057          0.2773727538373312 1.0000   
         C         C         1.0       0.40917804498627597           0.3054290842741342 0.2961002396491854 1.0000   
         C         C         1.0       0.39200783718091536           0.31682872785991795          0.2982564946927925 1.0000   
         C         C         1.0       0.3710515290305733  0.3049358586102886  0.27879222302212214          1.0000   
         C         C         1.0       0.3678495855301514  0.2831575831245909  0.2591939478094096 1.0000   
         C         C         1.0       0.3865413970494037  0.2735397345068671  0.2566138965108386 1.0000   
         C         C         1.0       0.40087078659611064           0.34682724535125237          0.31335001272180407          1.0000   
         C         C         1.0       0.4088050309255472  0.3609213551378681  0.411232841786115  1.0000   
         C         C         1.0       0.41846893489966946           0.38163631319109276          0.39389659273982536          1.0000   
         C         C         1.0       0.41750250394488636           0.3767559528925471 0.3628372153812275 1.0000   
         C         C         1.0       0.40807255570091694           0.3520120312135194 0.34819137924963234          1.0000   
         C         C         1.0       0.39837611091825303           0.3298321697815752 0.3659169900972029 1.0000   
         C         C         1.0       0.39822782795073175           0.3352001503014031 0.39716650402328674          1.0000   
         C         C         1.0       0.3793910687607718  0.3570222265002042  0.31435467446238574          1.0000   
         C         C         1.0       0.38610060098707943           0.38206911133327065          0.30607013704339747          1.0000   
         C         C         1.0       0.3658902326252821  0.38936102158974784           0.3089581340792725 1.0000   
         C         C         1.0       0.3405338335316666  0.37378054639542213           0.32199517035862035          1.0000   
         C         C         1.0       0.33491537019265327           0.35131267635800845          0.33499518026462405          1.0000   
         C         C         1.0       0.3535048039050579  0.3423661810311702  0.33010859381508584          1.0000   
         C         C         1.0       0.45226606041320666           0.37870764844748434          0.29899456604975294          1.0000   
         C         C         1.0       0.4736984619640194  0.3906076555832992  0.2792045064839931 1.0000   
         C         C         1.0       0.47111071058696063           0.3861228198983726 0.2480063936526281 1.0000   
         C         C         1.0       0.44571903736742907           0.37124764424833945          0.23823409109567212          1.0000   
         C         C         1.0       0.4239321167699268  0.3608234780760692  0.2595697894724627 1.0000   
         C         C         1.0       0.4268525406312175  0.36305058692914655           0.29023250140875156          1.0000   
         H         H         1.0       0.4292805458353831  0.25932513326322615           0.18300301001752647          1.0000   
         H         H         1.0       0.39718022031772704           0.22472664500779388          0.26589828127667753          1.0000   
         H         H         1.0       0.43341510933419186           0.21547910717341412          0.26303916097408425          1.0000   
         H         H         1.0       0.4666793851528987  0.25771970980210274           0.18290412361507158          1.0000   
         H         H         1.0       0.34746625843256385           0.23372122987672994          0.281602678175649  1.0000   
         H         H         1.0       0.3065331083845754  0.19014882249411874           0.287466204597286  1.0000   
         H         H         1.0       0.32322564712550383           0.16053963645761068          0.20058091354464583          1.0000   
         H         H         1.0       0.3635715740772769  0.20343238439169933           0.1921200618785624 1.0000   
         H         H         1.0       0.4242051587462093  0.28078123331916094           0.2786130598628075 1.0000   
         H         H         1.0       0.42678776297122856           0.3150718619445952 0.3079649699393032 1.0000   
         H         H         1.0       0.3573537342493248  0.31312546141238107           0.2790127449284629 1.0000   
         H         H         1.0       0.3517065603937419  0.2751597807238835  0.2447856662815746 1.0000   
         H         H         1.0       0.4273118884997994  0.40237265564292196           0.4044658069162515 1.0000   
         H         H         1.0       0.4251734974600188  0.3927769962013608  0.34982740051796507          1.0000   
         H         H         1.0       0.39003510559654664           0.3101540678212048 0.3528114271591637 1.0000   
         H         H         1.0       0.3950892762830572  0.3192071473638117  0.4106707363995022 1.0000   
         H         H         1.0       0.40505556985136504           0.39560419366355665          0.29489151699294075          1.0000   
         H         H         1.0       0.3691646999813051  0.4077072166228374  0.3011244151561519 1.0000   
         H         H         1.0       0.3157257982420297  0.33856648086789287           0.3465811886790382 1.0000   
         H         H         1.0       0.35213391640253416           0.3266155852244248 0.34137069989600494          1.0000   
         H         H         1.0       0.45711367747248466           0.38469744751944224          0.3224407670752035 1.0000   
         H         H         1.0       0.49347255161439857           0.4036262936713893 0.2882722833878277 1.0000   
         H         H         1.0       0.4411399637353367  0.36883389148557866           0.21624943189809004          1.0000   
         H         H         1.0       0.40396128146973853           0.34944857199115203          0.2518831502384646 1.0000   
         C         C         1.0       0.45094026197441656           0.06504139193669349          0.4025739578020559 1.0000   
         C         C         1.0       0.47174094510729225           0.08043992219886288          0.3820819880814577 1.0000   
         C         C         1.0       0.4685384793901907  0.07493053530309268           0.35208136245580035          1.0000   
         C         C         1.0       0.4447457973253228  0.05189411679571987           0.34067256885428554          1.0000   
         C         C         1.0       0.4235781991622274  0.04006330193857154           0.361291251762022  1.0000   
         C         C         1.0       0.4268820713411453  0.04434599022305332           0.3912755156004208 1.0000   
         H         H         1.0       0.490122651693225   0.09939036063878788           0.3892312173805108 1.0000   
         H         H         1.0       0.48565975541639006           0.08819780929291976          0.33842986590429724          1.0000   
         H         H         1.0       0.4046967556465285  0.02554509371758586           0.3544334816135036 1.0000   
         H         H         1.0       0.4091904026291918  0.033430047683389835         0.4068785594830509 1.0000   
         C         C         1.0       0.3861987439418896  0.4717498214103129  0.361656171916975  1.0000   
         C         C         1.0       0.3866931108252549  0.48285070783110795           0.33630577778818244          1.0000   
         C         C         1.0       0.3642429442308699  0.46909324115633755           0.3197089275696199 1.0000   
         C         C         1.0       0.3420024830409263  0.4447991594792775  0.3274461996684316 1.0000   
         C         C         1.0       0.3434713023752833  0.43341311401522037           0.35095118778876566          1.0000   
         C         C         1.0       0.36489513434784304           0.4466600919041844 0.36888192173039297          1.0000   
         C         C         1.0       0.4394638211890883  0.043975324939870886         0.3056926526379031 1.0000   
         C         C         1.0       0.46519099317371865           0.046972331526177434         0.2837303533344056 1.0000   
         C         C         1.0       0.46731426764429035           0.05225112452017927          0.25332294999664334          1.0000   
         C         C         1.0       0.48833871069820817           0.05206024942952503          0.23406705896336277          1.0000   
         C         C         1.0       0.5054584584711977  0.04499528953289679           0.24389797969032198          1.0000   
         C         C         1.0       0.5037082648431771  0.04120983024981684           0.2736770411381956 1.0000   
         C         C         1.0       0.4847363139752764  0.04229402472586795           0.2930716273814741 1.0000   
         C         C         1.0       0.40097594928105174           0.057059658927261905         0.30212398313808136          1.0000   
         C         C         1.0       0.39425747808922557           0.0719869043914411 0.28855193899699055          1.0000   
         C         C         1.0       0.41344446082882313           0.09420100211627921          0.27399521202146476          1.0000   
         C         C         1.0       0.4403983222736089  0.10300804257550034           0.27713633398247034          1.0000   
         C         C         1.0       0.44728228093894573           0.08912765236808753          0.2920255962774179 1.0000   
         C         C         1.0       0.42780464629136916           0.06320612821051647          0.29997496323651046          1.0000   
         C         C         1.0       0.4056729666286618  0.10370944540912493           0.24729954037552565          1.0000   
         C         C         1.0       0.41038755737899113           0.04293310662148174          0.1762859299451052 1.0000   
         C         C         1.0       0.3855119031096648  0.03744566964078912           0.19462586219964234          1.0000   
         C         C         1.0       0.3852746848098556  0.057183722201691385         0.21619318598362236          1.0000   
         C         C         1.0       0.4069903309066569  0.08160987393801278           0.22055733152879603          1.0000   
         C         C         1.0       0.4309853772543968  0.08544381816072427           0.20388100970179301          1.0000   
         C         C         1.0       0.43382652311355147           0.06751805999829552          0.18133669113146397          1.0000   
         C         C         1.0       0.4245519746776078  0.1333337246907179  0.23581119352795082          1.0000   
         C         C         1.0       0.44528784249608455           0.1537743462127218 0.2531668887003004 1.0000   
         C         C         1.0       0.46218174284235447           0.17813685263737014          0.24346328036066098          1.0000   
         C         C         1.0       0.45917292187945774           0.18230877717050406          0.2152114169388229 1.0000   
         C         C         1.0       0.43885225858435156           0.1628627099177093 0.19799914487756526          1.0000   
         C         C         1.0       0.4199227517173512  0.1390195855831686  0.20956747675840887          1.0000   
         C         C         1.0       0.35662957060868866           0.09269729804043671          0.24146406318086266          1.0000   
         C         C         1.0       0.33303329448170543           0.09266676805823447          0.25330167949391164          1.0000   
         C         C         1.0       0.33103408748804214           0.10403952985522694          0.2815924348673266 1.0000   
         C         C         1.0       0.35370639035919943           0.11884322654489492          0.2980779517128579 1.0000   
         C         C         1.0       0.3770086874823295  0.11833914336878266           0.2867334644189984 1.0000   
         C         C         1.0       0.37824890270228795           0.1044631264533812 0.2588528371381964 1.0000   
         H         H         1.0       0.403266453793394   0.47982817171665143           0.37564971287162685          1.0000   
         H         H         1.0       0.3647199375955812  0.4750208199563687  0.29790228174059746          1.0000   
         H         H         1.0       0.32617537524163115           0.4336034129879045 0.311642152404018  1.0000   
         H         H         1.0       0.3679028393973148  0.43647885457330593           0.3856811532489988 1.0000   
         H         H         1.0       0.4535077005698399  0.05803763239383317           0.24661005426076998          1.0000   
         H         H         1.0       0.492609695187844   0.057133962799376534         0.2113417731998762 1.0000   
         H         H         1.0       0.5162466334886946  0.03553463449264205           0.2814103622443194 1.0000   
         H         H         1.0       0.481715076905288   0.03606658613138996           0.3166258058646241 1.0000   
         H         H         1.0       0.38538701081707655           0.03819424124087708          0.309617693039554  1.0000   
         H         H         1.0       0.3728433743974844  0.06550681674403613           0.2848180310797352 1.0000   
         H         H         1.0       0.45717460087407524           0.120858506509653  0.26811532150020656          1.0000   
         H         H         1.0       0.4692901754213248  0.09479103479000543           0.2958054071668162 1.0000   
         H         H         1.0       0.37247921538619033           0.49412787710707573          0.1785135982590998 1.0000   
         H         H         1.0       0.36639793326082115           0.051113486563182334         0.22900599698905613          1.0000   
         H         H         1.0       0.4501479786981298  0.10392998470756458           0.20924068041976185          1.0000   
         H         H         1.0       0.45282403829564905           0.07022623563373852          0.1691782878509464 1.0000   
         H         H         1.0       0.4438432908174879  0.15099193885468257           0.2765531781687901 1.0000   
         H         H         1.0       0.48055065982769735           0.19272349660394217          0.2542090015970907 1.0000   
         H         H         1.0       0.4376711816884556  0.16586357392431308           0.17572510507780048          1.0000   
         H         H         1.0       0.402723138405014   0.12384512099466395           0.19618999964721096          1.0000   
         H         H         1.0       0.35799563316505073           0.08375799776937955          0.21868858632124866          1.0000   
         H         H         1.0       0.3156499007078733  0.08317475057046272           0.23974785208764207          1.0000   
         H         H         1.0       0.3531516461813726  0.12852451774059886           0.3207799202038745 1.0000   
         H         H         1.0       0.3935302043687696  0.13131176424397192           0.30016472666453237          1.0000   
         C         C         1.0       0.43097903561777984           0.4721001186973024 0.13683373979430785          1.0000   
         C         C         1.0       0.4585411108533548  0.48190525219926567           0.12708271021332251          1.0000   
         C         C         1.0       0.46715277281170703           0.46735781478396093          0.10693189143414938          1.0000   
         C         C         1.0       0.44819648764779985           0.441208530738891  0.09603352046979793          1.0000   
         C         C         1.0       0.4209647614475605  0.43234167755009006           0.10538441185618053          1.0000   
         C         C         1.0       0.4123399111442148  0.44770434233566136           0.1247378659097155 1.0000   
         H         H         1.0       0.47455641664801873           0.5004364315118063 0.1357292819294128 1.0000   
         H         H         1.0       0.488161204387299   0.47779775756700393           0.09777382955380365          1.0000   
         H         H         1.0       0.40712670569321524           0.413076444173481  0.0981001019826556 1.0000   
         H         H         1.0       0.39090179252527635           0.44237585813779434          0.1323148794718751 1.0000   
         C         C         1.0       0.43976577220306173           0.38807044422167203          0.10253830021209479          1.0000   
         C         C         1.0       0.4421515968182563  0.39384588480649607           0.07245675802964154          1.0000   
         C         C         1.0       0.4325874475497794  0.37144302095737164           0.051419615158574614         1.0000   
         C         C         1.0       0.4186406466058883  0.3457569080808739  0.05995186608530288          1.0000   
         C         C         1.0       0.4174428551570248  0.3411330152985684  0.08992481627127714          1.0000   
         C         C         1.0       0.4294876965958754  0.3623633581313159  0.11127313266758018          1.0000   
         C         C         1.0       0.4572639620597747  0.42487201548169556           0.06756956062083186          1.0000   
         C         C         1.0       0.4871532343942201  0.43010897834887    0.062126842156149165         1.0000   
         C         C         1.0       0.49853551575111327           0.4277622704977763 0.033045525876020276         1.0000   
         C         C         1.0       0.03510338103617262           0.4329194959078087 0.032846249220203294         1.0000   
         C         C         1.0       0.05027970147375268           0.44021546845472154          0.05741046106147221          1.0000   
         C         C         1.0       0.03808023467946207           0.44331641450224657          0.08598634159039499          1.0000   
         C         C         1.0       0.5049763969737349  0.43954009632578256           0.08585496987230296          1.0000   
         C         C         1.0       0.42870625655169103           0.42195283991886934          0.0243572931509937 1.0000   
         C         C         1.0       0.42558810322299295           0.4318090086705116 0.0003465151014785395        1.0000   
         C         C         1.0       0.44284998108313584           0.45875341988618257          0.9948473782672291 1.0000   
         C         C         1.0       0.46652398834280434           0.4720446360983609 0.01146516317791546          1.0000   
         C         C         1.0       0.47043967258380354           0.4612486672571945 0.03356819623123209          1.0000   
         C         C         1.0       0.45112446120099553           0.4361690438301208 0.041519056328876425         1.0000   
         C         C         1.0       0.44310057143163434           0.47039039128107857          0.965047041415304  1.0000   
         C         C         1.0       0.47690981269150656           0.4222229624010394 0.9128686770211003 1.0000   
         C         C         1.0       0.4503454679789927  0.41434540329233155           0.9125402928183036 1.0000   
         C         C         1.0       0.4408508626570702  0.4310896325495428  0.9257262941842748 1.0000   
         C         C         1.0       0.4565537542111629  0.45632853253179806           0.9393833418285552 1.0000   
         C         C         1.0       0.48459101100118573           0.46459395399423514          0.9386726518959126 1.0000   
         C         C         1.0       0.4940989898177995  0.4482906332892621  0.9237631647010711 1.0000   
         C         C         1.0       0.4577968452835866  0.501783488077008   0.9692772605569221 1.0000   
         C         C         1.0       0.4531934339288228  0.5154297111660425  0.9961139381220809 1.0000   
         C         C         1.0       0.46470692337358566           0.026748411080536414         0.01700256710103365          1.0000   
         C         C         1.0       0.48480839242898466           0.03845396164220625          0.9962595171831774 1.0000   
         C         C         1.0       0.487426458296226   0.023879084817973996         0.9694656494056452 1.0000   
         C         C         1.0       0.4767141583521021  0.5164110594730001  0.9463265234850435 1.0000   
         C         C         1.0       0.41330781558088814           0.4690527317876288 0.9237134761489231 1.0000   
         C         C         1.0       0.38947825190180013           0.4629333790590501 0.912499977138167  1.0000   
         C         C         1.0       0.3649818097774602  0.45054717754268964           0.9300383404313628 1.0000   
         C         C         1.0       0.36562093642738835           0.4488904667642899 0.9601169458968654 1.0000   
         C         C         1.0       0.3890218278577762  0.45282665330287636           0.9706288053655581 1.0000   
         C         C         1.0       0.41419562018614603           0.4642394574581963 0.9532768846080887 1.0000   
         H         H         1.0       0.4470537480594379  0.40399681743291727           0.1203015740940053 1.0000   
         H         H         1.0       0.43363082192488916           0.375942745595495  0.029051505530764153         1.0000   
         H         H         1.0       0.4122689613824935  0.3289356088862528  0.04146344268316572          1.0000   
         H         H         1.0       0.4333527454578041  0.3636872047017002  0.13473567028151753          1.0000   
         H         H         1.0       0.48513531209102495           0.4200722615631715 0.01458288857463974          1.0000   
         H         H         1.0       0.04372853780131277           0.4308718426782276 0.011353738737958974         1.0000   
         H         H         1.0       0.04923767924431723           0.447735101562479  0.10524871351377744          1.0000   
         H         H         1.0       0.497998695357309   0.4388127761741581  0.10909170670682945          1.0000   
         H         H         1.0       0.41384210675511157           0.40136697642766755          0.02800091398108899          1.0000   
         H         H         1.0       0.40872863661852427           0.41796547865854883          0.986100441484682  1.0000   
         H         H         1.0       0.48219246617115974           0.49230598216387267          0.00766325923346689          1.0000   
         H         H         1.0       0.48964576437694146           0.47383699817157954          0.04393519954836815          1.0000   
         H         H         1.0       0.437030898998795   0.3941353785982053  0.9027747148325231 1.0000   
         H         H         1.0       0.4203644110617939  0.4233427576656292  0.9307988396953989 1.0000   
         H         H         1.0       0.4977385048121304  0.4823886490437411  0.9519099726415463 1.0000   
         H         H         1.0       0.5155433629968311  0.4545147687212567  0.9266066975888412 1.0000   
         H         H         1.0       0.4375417226209725  0.5044695049806307  0.014736060464760392         1.0000   
         H         H         1.0       0.46604539969764297           0.03967484145583946          0.03804630429174776          1.0000   
         H         H         1.0       0.5034625463775586  0.034683669190446964         0.9506266383387896 1.0000   
         H         H         1.0       0.48129190957244805           0.5080952672343965 0.92395818448928   1.0000   
         H         H         1.0       0.43249955244007426           0.4789147437805816 0.9102334747348284 1.0000   
         H         H         1.0       0.38797563890479303           0.4688165310419736 0.8909588664193369 1.0000   
         H         H         1.0       0.34792096450960164           0.4447278237021209 0.9741521778297754 1.0000   
         H         H         1.0       0.39083197897966665           0.45330962729681745          0.9943192748989538 1.0000   
         C         C         1.0       0.4243063452139242  0.48967267678066445           0.16089722149876773          1.0000   
         C         C         1.0       0.4124755444001188  0.021373888664695837         0.1544820481458004 1.0000   
         H         H         1.0       0.4424232617394591  0.022191020274425613         0.1761935775795207 1.0000   
         H         H         1.0       0.4044456176479036  0.4764173019341964  0.1724385377801261 1.0000   
         H         H         1.0       0.40734016069583556           0.5026362050221892 0.13218355909441343          1.0000   
         H         H         1.0       0.4284003269352437  0.030712743542559096         0.13668410840490677          1.0000   
         C         C         1.0       0.4063663092064197  0.312733176606621   0.10031068946896436          1.0000   
         C         C         1.0       0.38275039253632465           0.30419701754876005          0.12650732846865861          1.0000   
         H         H         1.0       0.39843303011300674           0.2986080574570031 0.08076019610571517          1.0000   
         H         H         1.0       0.42427503085905266           0.3107554022778196 0.10636041359239029          1.0000   
         H         H         1.0       0.3820101755191762  0.32161860665794445           0.14038914075593206          1.0000   
         H         H         1.0       0.3624097737665464  0.29556596389191364           0.11773429594059187          1.0000   
         C         C         1.0       0.31956110295370665           0.3828978933065471 0.32756917727265145          1.0000   
         C         C         1.0       0.32238798353042747           0.4035686452682483 0.3555585760527653 1.0000   
         H         H         1.0       0.31904522612519964           0.39143957704037763          0.3078019386078941 1.0000   
         H         H         1.0       0.29813569672765855           0.3662158325892981 0.33097515197166333          1.0000   
         H         H         1.0       0.3272137576358377  0.40045194492919933           0.3776155681495074 1.0000   
         H         H         1.0       0.302106583390641   0.40210047094115364           0.36007670363446265          1.0000   
         C         C         1.0       0.48010465136823083           0.23213187517141406          0.220604386698399  1.0000   
         C         C         1.0       0.47747498365173846           0.20700969046694437          0.20099962043048322          1.0000   
         H         H         1.0       0.4905069680781193  0.23605743898091353           0.2414589610766958 1.0000   
         H         H         1.0       0.4971916732321608  0.24918743133458238           0.20594634072156864          1.0000   
         H         H         1.0       0.49689768543002727           0.20760426996014925          0.1970274997005555 1.0000   
         H         H         1.0       0.4719711401493537  0.2067274179975209  0.1764758509473635 1.0000   
         C         C         1.0       0.10339238365592114           0.47469833467362904          0.0623285543737092 1.0000   
         C         C         1.0       0.0795138409719226  0.44639384729812454           0.053249144309832755         1.0000   
         H         H         1.0       0.10177659859617053           0.48868725698145277          0.05037603853560688          1.0000   
         H         H         1.0       0.12360517448118885           0.47733123651638515          0.05254852564736667          1.0000   
         H         H         1.0       0.0803079518932339  0.4317438560408653  0.06465641806143697          1.0000   
         H         H         1.0       0.08551785610074664           0.44090589536214614          0.029163845834844215         1.0000   
         C         C         1.0       0.46710099287565077           0.4426259511949935 0.22759356488135662          1.0000   
         C         C         1.0       0.5214925374390088  0.03650372503411962           0.2197027417283504 1.0000   
         H         H         1.0       0.4601426336009106  0.4225713354743719  0.21486757672920978          1.0000   
         H         H         1.0       0.4683974969210708  0.4391970170690425  0.2508842965151148 1.0000   
         H         H         1.0       0.5408754061756947  0.0426243918108537  0.2282224316521379 1.0000   
         H         H         1.0       0.5265445174097945  0.04660323180415016           0.20005967036549108          1.0000   
         C         C         1.0       0.2883177228093984  0.06842659461256298           0.3020221064211366 1.0000   
         C         C         1.0       0.30306991600572303           0.09813470235798447          0.29579596220106286          1.0000   
         H         H         1.0       0.2931509845631237  0.06719403979183051           0.3248312316213649 1.0000   
         H         H         1.0       0.29381452491342447           0.05399156276382043          0.2878136087552035 1.0000   
         H         H         1.0       0.29198143030971535           0.103692840079938  0.283842020349403  1.0000   
         H         H         1.0       0.30425709916278804           0.11128446890646605          0.3176585282905117 1.0000   
         C         C         1.0       0.2575588009347842  0.15323105730891462           0.24342784160855993          1.0000   
         C         C         1.0       0.2821187181023095  0.14906296826867765           0.24633898458727146          1.0000   
         H         H         1.0       0.2578574422537782  0.15571544290283215           0.22016787193284781          1.0000   
         H         H         1.0       0.2592825598354316  0.17244908422604824           0.2545811797331572 1.0000   
         H         H         1.0       0.28258970089234886           0.13345217887648958          0.22795201442442098          1.0000   
         H         H         1.0       0.28227190519397694           0.14448747615292154          0.2692704641156073 1.0000   
         C         C         1.0       0.980976933811014   0.3776511799197253  0.21936979764662423          1.0000   
         C         C         1.0       0.4960990988562228  0.3993389268833944  0.2266805288561102 1.0000   
         H         H         1.0       0.514969419251895   0.37516700791371027           0.21529896637416962          1.0000   
         H         H         1.0       0.9842558423704424  0.37451319251723825           0.2417949441072154 1.0000   
         H         H         1.0       0.9592050608353182  0.3932043768617809  0.20281452001533962          1.0000   
         H         H         1.0       0.5039868745317237  0.42135092084484965           0.23177962689128795          1.0000   
         C         C         1.0       0.3384383290779082  0.44023034709879144           0.9134355410717266 1.0000   
         C         C         1.0       0.3191583025595964  0.41058077539386606           0.9157734992639842 1.0000   
         H         H         1.0       0.3283528016912051  0.4526142165947635  0.9209590703613009 1.0000   
         H         H         1.0       0.34526791211706753           0.44555302856694673          0.8901543167246463 1.0000   
         H         H         1.0       0.30908489356520247           0.4081057426108665 0.9389869485168237 1.0000   
         H         H         1.0       0.33011884749911685           0.40006932565522824          0.9169080043380634 1.0000   
         C         C         1.0       0.488116222734343   0.4039838356344248  0.9008284127862292 1.0000   
         C         C         1.0       0.47762425181564067           0.37835534858987285          0.9153341569770156 1.0000   
         H         H         1.0       0.48267253610111993           0.39814734324712087          0.8775881012567445 1.0000   
         H         H         1.0       0.5103888253289606  0.4158730569632781  0.8992729658807058 1.0000   
         H         H         1.0       0.45472144167836853           0.3684773088247899 0.9195175590149005 1.0000   
         H         H         1.0       0.4830630960381394  0.3826526793803666  0.9390891713461316 1.0000   
         C         C         1.0       0.12305814342510814           0.31732053852369907          0.7880062833463763 1.0000   
         C         C         1.0       0.1410306524011219  0.34589142565792685           0.8042099529259211 1.0000   
         H         H         1.0       0.1323831015955653  0.3172829355795832  0.7634139506630133 1.0000   
         H         H         1.0       0.12405643536022819           0.3017945857383136 0.799417266943225  1.0000   
         H         H         1.0       0.13291222474025707           0.34829512001408014          0.8276468513890303 1.0000   
         H         H         1.0       0.14118762102631824           0.36244304754931955          0.7945432415254204 1.0000   
         C         C         1.0       0.40672485022093885           0.39838964780558045          0.8353205839977722 1.0000   
         C         C         1.0       0.42033257201774993           0.42946985339757887          0.8416119810777534 1.0000   
         H         H         1.0       0.3884536509661123  0.38939610035869526           0.8217185899724416 1.0000   
         H         H         1.0       0.39791115767288154           0.39190003445500204          0.8581555865528082 1.0000   
         H         H         1.0       0.4212097608203782  0.43637652040223673           0.8658243018880323 1.0000   
         H         H         1.0       0.44153182813776093           0.43938506160410334          0.8339271396683621 1.0000   
         C         C         1.0       0.49555486778654906           0.08673861223497714          0.0033663874189966414        1.0000   
         C         C         1.0       0.5052734718833327  0.0669077242367254  0.004581059000048349         1.0000   
         H         H         1.0       0.5123714891167878  0.10584166772060988           0.0148482562118335 1.0000   
         H         H         1.0       0.47522148777916073           0.08124101940424808          0.015299662204711018         1.0000   
         H         H         1.0       0.5248982632567668  0.07250588390367438           0.9895163382213044 1.0000   
         H         H         1.0       0.5108999603719181  0.06903227352840312           0.02758092933003264          1.0000   
         C         C         1.0       0.4448172504988046  0.1722419687553466  0.8193511162313354 1.0000   
         C         C         1.0       0.4384897879153902  0.18996575114665626           0.8034049833033213 1.0000   
         H         H         1.0       0.4271106947985032  0.150960005404222   0.8194496596900462 1.0000   
         H         H         1.0       0.4472085995015293  0.1801391604883293  0.842918425041601  1.0000   
         H         H         1.0       0.4166917405828102  0.1852131467522009  0.8079776735371536 1.0000   
         H         H         1.0       0.44115790866363414           0.1854606806138378 0.7779314243535893 1.0000   
         C         C         1.0       0.026667646886425957          0.4844060936822846 0.8098213392932695 1.0000   
         C         C         1.0       0.5171407281940282  0.48872163568206733           0.8509523806468261 1.0000   
         H         H         1.0       0.03564080011835944           0.4993874111676145 0.7941351104708898 1.0000   
         H         H         1.0       0.04290891845229337           0.49124027424047345          0.8263941918405827 1.0000   
         H         H         1.0       0.5195326380471853  0.48638394829145076           0.8740438043723855 1.0000   
         H         H         1.0       0.498168583590048   0.46912370710305995           0.8439706626812205 1.0000   
         C         C         1.0       0.1635887087435559  0.25285650776869256           0.7503063466168646 1.0000   
         C         C         1.0       0.18804298927085586           0.25048914618385637          0.7567008589646183 1.0000   
         H         H         1.0       0.16346143434633206           0.2693435622756304 0.7670507080870997 1.0000   
         H         H         1.0       0.16939477704898737           0.26279480508628594          0.7298760063692218 1.0000   
         H         H         1.0       0.19768782644882207           0.24369698291556774          0.7366791061146581 1.0000   
         H         H         1.0       0.18248839950910667           0.23503071308277906          0.7727093777370687 1.0000   
         C         C         1.0       0.3803800684334339  0.06291858216287444           0.846700887737731  1.0000   
         C         C         1.0       0.367390448000651   0.048595088543493446         0.8164364429292867 1.0000   
         H         H         1.0       0.3668289989021324  0.05289124016780605           0.8659309899898353 1.0000   
         H         H         1.0       0.38279648148175655           0.08314521002622738          0.8503166239900679 1.0000   
         H         H         1.0       0.3800004074583563  0.05982720992388589           0.7972543339224473 1.0000   
         H         H         1.0       0.3474694102752592  0.04691695588591918           0.8166829856870744 1.0000   
         C         C         1.0       0.4076381878954656  0.3668598671247588  0.4464776831635519 1.0000   
         C         C         1.0       0.43553982307493655           0.3765745675071428 0.4567603662828814 1.0000   
         H         H         1.0       0.39865845554046286           0.3800755120817128 0.45112861865228077          1.0000   
         H         H         1.0       0.39230172099090094           0.34913323588638107          0.4550952681289361 1.0000   
         H         H         1.0       0.44532125434366393           0.3656471233913428 0.44357868368899783          1.0000   
         H         H         1.0       0.4313155392353368  0.36875427037643427           0.47896371856916176          1.0000   
         C         C         1.0       0.44070521936471385           0.05461098189926858          0.4591640622259637 1.0000   
         C         C         1.0       0.4555662961859317  0.07541222571209388           0.43592729384026613          1.0000   
         H         H         1.0       0.41902113485557557           0.04301455453858378          0.45675423509190766          1.0000   
         H         H         1.0       0.44153104564015416           0.06409721752279073          0.4818279840484435 1.0000   
         H         H         1.0       0.4779416388620026  0.08798430049455201           0.4400142464618719 1.0000   
         H         H         1.0       0.4492666792535809  0.09031447824714989           0.4421005858242063 1.0000   
         C         C         1.0       0.06322622940638788           0.014455006545306383         0.3667466557418976 1.0000   
         C         C         1.0       0.09047370191557849           0.025603236096834812         0.37869036999254163          1.0000   
         H         H         1.0       0.06422603933301389           0.00026559292289636164       0.34690852360563457          1.0000   
         H         H         1.0       0.060788401548806756          0.02860797675582278          0.35437950499573634          1.0000   
         H         H         1.0       0.09097010344627174           0.01524200536628715          0.3972739650647939 1.0000   
         H         H         1.0       0.09474722465638946           0.04394423912649661          0.39430028736437944          1.0000   
         C         C         1.0       0.3725583222925879  0.41387260357253997           0.6367335114504868 1.0000   
         C         C         1.0       0.39444828717165364           0.4384063937252016 0.620908386470951  1.0000   
         H         H         1.0       0.37598027275872037           0.39566316977420585          0.6309383971082885 1.0000   
         H         H         1.0       0.35420590953847025           0.40657836553338167          0.6271585974432067 1.0000   
         H         H         1.0       0.38886460411685314           0.4401656375350348 0.5985940785888992 1.0000   
         H         H         1.0       0.39572892224402534           0.4563789780073312 0.6343775368787337 1.0000   
         C         C         1.0       0.030296851710613113          0.06706139477332615          0.6498076557645798 1.0000   
         C         C         1.0       0.04790879175815626           0.09422757586313373          0.6378295958170639 1.0000   
         H         H         1.0       0.5203032927178359  0.06568570247385806           0.6926070895355556 1.0000   
         H         H         1.0       0.04353561870139622           0.06375919860844359          0.6631323624244082 1.0000   
         H         H         1.0       0.06754785568435742           0.0957046821091017 0.6278721939133298 1.0000   
         H         H         1.0       0.03826190629988486           0.09685520948952571          0.6192137513397801 1.0000   
         C         C         1.0       0.5094606286945877  0.3689878762083485  0.6330885307907831 1.0000   
         C         C         1.0       0.4907920902004854  0.3719907502202564  0.6141039685791249 1.0000   
         H         H         1.0       0.9911161872411326  0.38031716806640586           0.6050894737114517 1.0000   
         H         H         1.0       0.5060917256256707  0.34919937093950804           0.6243090690658468 1.0000   
         H         H         1.0       0.46836404778781987           0.36168625284295153          0.6211307653237433 1.0000   
         H         H         1.0       0.4936805506412878  0.3605893844321213  0.5932045219232227 1.0000   
         C         C         1.0       0.41549119993589795           0.8964526404675683 0.467114969232619  1.0000   
         C         C         1.0       0.44050157921079347           0.9019791940350402 0.4538840933064766 1.0000   
         C         C         1.0       0.4621963786898872  0.9288922841579842  0.45482881217266163          1.0000   
         C         C         1.0       0.4574265631664177  0.9503809985511146  0.46735309437926803          1.0000   
         C         C         1.0       0.4322184142596558  0.9435930671999994  0.4822864612976418 1.0000   
         C         C         1.0       0.4107016490813146  0.916862548078225   0.47932865839376876          1.0000   
         H         H         1.0       0.44412315206908665           0.886181345032722  0.4422120075200356 1.0000   
         H         H         1.0       0.48081665887675223           0.9320567145491995 0.44244035329899384          1.0000   
         H         H         1.0       0.4287674119818827  0.9589212047620694  0.4955378988377346 1.0000   
         H         H         1.0       0.39015294331147654           0.9110468200056997 0.48926560598576835          1.0000   
         C         C         1.0       0.4488825684242423  0.9926245990679555  0.44639014581221775          1.0000   
         C         C         1.0       0.470561945847718   0.9997119822063015  0.46339789253334146          1.0000   
         C         C         1.0       0.516973671124646   0.5389139166013085  0.4689589810640804 1.0000   
         C         C         1.0       0.5049320357343605  0.554056828332432   0.466953170244072  1.0000   
         C         C         1.0       0.4820804946793099  0.5453008641218404  0.452775306491098  1.0000   
         C         C         1.0       0.4719121482990402  0.5206752788244122  0.43735533527775566          1.0000   
         C         C         1.0       0.48113523853931267           0.9809770693950092 0.46952547054848276          1.0000   
         C         C         1.0       0.5054591186469105  0.9854841907330838  0.44441180082859594          1.0000   
         C         C         1.0       0.0013054146109664543         0.4961510298315321 0.4295393234643923 1.0000   
         C         C         1.0       0.023384804091867235          0.50479522090564   0.40885953864506736          1.0000   
         C         C         1.0       0.02132383511655417           0.491633381169332  0.37998703459996025          1.0000   
         C         C         1.0       0.014804601615767474          0.9792422316081827 0.37874213714222454          1.0000   
         C         C         1.0       0.49789935523078743           0.9759303450692194 0.41395893225982894          1.0000   
         C         C         1.0       0.4748620770531995  0.9928010945820659  0.5264543668224247 1.0000   
         C         C         1.0       0.4726756207909923  0.9888975690673875  0.5553843543814223 1.0000   
         C         C         1.0       0.48653365360655193           0.9768394846922893 0.5638128258306964 1.0000   
         C         C         1.0       0.5049484267533842  0.973932993128557   0.5429700210880991 1.0000   
         C         C         1.0       0.5041457188306407  0.974774069515949   0.5121344981045907 1.0000   
         C         C         1.0       0.4892236136618559  0.9846123499062331  0.5035989090203182 1.0000   
         C         C         1.0       0.48120968642381834           0.971030382170109  0.5990017647950935 1.0000   
         C         C         1.0       0.39449954765676637           0.928177279604209  0.6251540532862875 1.0000   
         C         C         1.0       0.4117470315889078  0.9463100577434658  0.6460101684198449 1.0000   
         C         C         1.0       0.43886977624241835           0.9578326903490046 0.6377246906716266 1.0000   
         C         C         1.0       0.4496588771437478  0.9548917032223802  0.6083171170843437 1.0000   
         C         C         1.0       0.43243561337055975           0.9370394147930571 0.5881124497964254 1.0000   
         C         C         1.0       0.4044624917568075  0.9230381385255664  0.5957649005168221 1.0000   
         C         C         1.0       0.4989532521350784  0.0006540071546921045        0.6146506837965471 1.0000   
         C         C         1.0       0.007547811629516996          0.00028597074561664826       0.6035462373149119 1.0000   
         C         C         1.0       0.012251061195295461          0.5203592433990424 0.6163595261072113 1.0000   
         C         C         1.0       0.0010420440791594277         0.5359870043641436 0.6298600005486993 1.0000   
         C         C         1.0       0.5352553263609735  0.5469663221588372  0.6298379722951538 1.0000   
         C         C         1.0       0.4872046216926272  0.01677414320271109           0.6224665239869472 1.0000   
         C         C         1.0       0.4913684092838921  0.9481162807910609  0.6371614850720134 1.0000   
         C         C         1.0       0.48902235289396784           0.9255983998475441 0.6462137731353179 1.0000   
         C         C         1.0       0.48498880858906396           0.9037966764158566 0.6259584533549272 1.0000   
         C         C         1.0       0.485509017586463   0.9056308996857299  0.5951918062406735 1.0000   
         C         C         1.0       0.4862942835695536  0.9273856385612783  0.5859354759173674 1.0000   
         C         C         1.0       0.4871167634916394  0.9484837666577088  0.6079263553013128 1.0000   
         H         H         1.0       0.4383236759790997  0.9725958618032965  0.43293169757416144          1.0000   
         H         H         1.0       0.5347238778972224  0.5476378802168935  0.481568711892595  1.0000   
         H         H         1.0       0.5130377352031316  0.5738056611388281  0.4787312917354822 1.0000   
         H         H         1.0       0.45463957657968607           0.5158065222779126 0.4249943298540947 1.0000   
         H         H         1.0       0.004010145842146398          0.507242669113382  0.45064691196528534          1.0000   
         H         H         1.0       0.04247253513609423           0.521969732490779  0.4152064520177605 1.0000   
         H         H         1.0       0.013144229919920852          0.9683344479395799 0.35766699876949   1.0000   
         H         H         1.0       0.4761919920501032  0.967015219261553   0.40940169216281236          1.0000   
         H         H         1.0       0.4611980509802519  0.9994209864814513  0.5224987316372116 1.0000   
         H         H         1.0       0.458035756904451   0.9923223314928693  0.5705968637279041 1.0000   
         H         H         1.0       0.0021925176586632547         0.9694337167634544 0.5346245053957469 1.0000   
         H         H         1.0       0.003537436744774539          0.9733693226278036 0.48109157731298624          1.0000   
         H         H         1.0       0.4041825540593216  0.9527975413296939  0.6665834306381451 1.0000   
         H         H         1.0       0.4508342062103714  0.9713762013783935  0.6557860538215824 1.0000   
         H         H         1.0       0.4395076788900853  0.9346301180125589  0.5647065844767721 1.0000   
         H         H         1.0       0.39147140632887767           0.9065465453186752 0.5793641103695467 1.0000   
         H         H         1.0       0.017950871966263278          0.9887326557221813 0.5981166359145211 1.0000   
         H         H         1.0       0.03257090347299036           0.5237005912345504 0.6178180105862046 1.0000   
         H         H         1.0       0.526827964014934   0.5600909753221017  0.637994333348004  1.0000   
         H         H         1.0       0.46629937559085827           0.008031893492783881         0.6193930407547998 1.0000   
         H         H         1.0       0.4885046858958724  0.9624959162162857  0.654952108309157  1.0000   
         H         H         1.0       0.4861820018878781  0.923340768018974   0.6689880573538488 1.0000   
         H         H         1.0       0.47920074531066814           0.8880385833669244 0.5783751433557895 1.0000   
         H         H         1.0       0.48371682487626483           0.9259463826859737 0.5622010691733891 1.0000   
         C         C         1.0       0.49652762726990296           0.6017000451816087 0.9486640016192194 1.0000   
         C         C         1.0       0.5202549575007923  0.6139434348569376  0.9316661181895272 1.0000   
         C         C         1.0       0.5207617880399875  0.6061711814420743  0.9008288264955436 1.0000   
         C         C         1.0       0.4974698220869885  0.5895736863481315  0.8864372581283017 1.0000   
         C         C         1.0       0.47426829334719717           0.5790607811308396 0.9044423982011115 1.0000   
         C         C         1.0       0.4728921597085176  0.5839722761554833  0.9349994154896879 1.0000   
         H         H         1.0       0.5390013518417882  0.6304390581965197  0.9413845904533983 1.0000   
         H         H         1.0       0.0338264600781935  0.6099645126117539  0.8828283705260789 1.0000   
         H         H         1.0       0.4542407210058429  0.5651545538285462  0.8960283440212692 1.0000   
         H         H         1.0       0.4548185097795667  0.5728435628176397  0.949690161358093  1.0000   
         C         C         1.0       0.4633296748395141  0.5957895181642648  0.8464605642664257 1.0000   
         C         C         1.0       0.4720622468635424  0.576790595539986   0.8361033755608944 1.0000   
         C         C         1.0       0.4609933180645771  0.5580116272319056  0.811112629853698  1.0000   
         C         C         1.0       0.4388541514370412  0.556401356045881   0.7984364983987865 1.0000   
         C         C         1.0       0.4320748986276655  0.576099977211058   0.8077880037793421 1.0000   
         C         C         1.0       0.44393066066464926           0.5960348310903308 0.8303543895938256 1.0000   
         C         C         1.0       0.49784263698391223           0.5823647665537067 0.8503782664548556 1.0000   
         C         C         1.0       0.5034112644038542  0.5574016031165313  0.8502358916779504 1.0000   
         C         C         1.0       0.5291593768270093  0.5593778837489934  0.8459551081398111 1.0000   
         C         C         1.0       0.019017580753724766          0.5298576876237379 0.8381354964964405 1.0000   
         C         C         1.0       0.5007035706783625  0.012361214515501429         0.8659322586464863 1.0000   
         C         C         1.0       0.47529264803433713           0.008720012264791022         0.8735997344303297 1.0000   
         C         C         1.0       0.48242861839067047           0.5313603815501363 0.8508445382887075 1.0000   
         C         C         1.0       0.012172995240646432          0.5894534351722844 0.8018211015395283 1.0000   
         C         C         1.0       0.02392192523918665           0.6051737813902368 0.7792531519587128 1.0000   
         C         C         1.0       0.03285760242691223           0.6327128156715875 0.7841173054007818 1.0000   
         C         C         1.0       0.02967727770947342           0.6426689385859026 0.8155555060925062 1.0000   
         C         C         1.0       0.5313015560377023  0.6313728630824625  0.8387465800532018 1.0000   
         C         C         1.0       0.5205708221589813  0.6043161193595629  0.8290370768297876 1.0000   
         C         C         1.0       0.04107112618057406           0.6525082122781212 0.757606469256639  1.0000   
         C         C         1.0       0.037647853815606855          0.6063941483137815 0.6708344833591711 1.0000   
         C         C         1.0       0.022680654890480857          0.6194190531470214 0.6767462159389753 1.0000   
         C         C         1.0       0.026411883928837532          0.6370482249833058 0.7028129557595912 1.0000   
         C         C         1.0       0.042016666297553885          0.6387718353191464 0.724308206566016  1.0000   
         C         C         1.0       0.05752467477810496           0.6266589552486665 0.7182125695568571 1.0000   
         C         C         1.0       0.05559923535061284           0.6099861223982179 0.6910920106027224 1.0000   
         C         C         1.0       0.07106004231403239           0.6760333725535852 0.7608755611177077 1.0000   
         C         C         1.0       0.08580901500838028           0.6795359911240325 0.7849634446197589 1.0000   
         C         C         1.0       0.11050354573128811           0.7029326517924716 0.7884135874560628 1.0000   
         C         C         1.0       0.11955128163223416           0.7223480932852542 0.7699051530193614 1.0000   
         C         C         1.0       0.1079533681468613  0.7184414621516695  0.7443682060586782 1.0000   
         C         C         1.0       0.08377800075829583           0.6950565479979477 0.7400473106209337 1.0000   
         C         C         1.0       0.022529491654000824          0.6862047861673385 0.7757196493811166 1.0000   
         C         C         1.0       0.0014767693907697  0.6910421141474035  0.7867810316465463 1.0000   
         C         C         1.0       0.4922753223021636  0.6725289798376536  0.7733290852159423 1.0000   
         C         C         1.0       0.490543891072893   0.6487106800892836  0.7579431373228446 1.0000   
         C         C         1.0       0.5154512392655672  0.6488086911827632  0.751615443983821  1.0000   
         C         C         1.0       0.017671983876509256          0.6602993857298581 0.7654749856856523 1.0000   
         H         H         1.0       0.47421338607387004           0.612069396009391  0.8637720049597372 1.0000   
         H         H         1.0       0.4669834925312301  0.5432172510504335  0.8026204951339986 1.0000   
         H         H         1.0       0.4294638795611554  0.5411181838076164  0.7789264595567831 1.0000   
         H         H         1.0       0.4365436861643813  0.6097831122625226  0.8370374199951349 1.0000   
         H         H         1.0       0.03226167613601894           0.5716044864253982 0.8421109295779313 1.0000   
         H         H         1.0       0.039083704198664096          0.532259349124197  0.8317293025063615 1.0000   
         H         H         1.0       0.45837750857123083           0.9895396883675854 0.8753344230287295 1.0000   
         H         H         1.0       0.4620148741807712  0.5279476533444097  0.8557407917841247 1.0000   
         H         H         1.0       0.5152052366704954  0.5760998157324029  0.7921211951502087 1.0000   
         H         H         1.0       0.023926631844940698          0.5945379356164473 0.7569338862909146 1.0000   
         H         H         1.0       0.03252676840811836           0.6617432415993568 0.8222349801707549 1.0000   
         H         H         1.0       0.5268180303939022  0.6369752675741019  0.8619959583197656 1.0000   
         H         H         1.0       0.01006216456853374           0.6185929249242421 0.6602701337501738 1.0000   
         H         H         1.0       0.017272206134635024          0.6489679527130139 0.7056798559248848 1.0000   
         H         H         1.0       0.07001604054338377           0.6296974890527701 0.7348352766143443 1.0000   
         H         H         1.0       0.06887614651845382           0.6014169957796495 0.6874176765507163 1.0000   
         H         H         1.0       0.08147821004704556           0.6682306014182425 0.8042699256470474 1.0000   
         H         H         1.0       0.12393120845108004           0.7048934084782775 0.8045396559296467 1.0000   
         H         H         1.0       0.1165530509032958  0.7324168995107821  0.7271895813304419 1.0000   
         H         H         1.0       0.07535846550313788           0.6932674209291759 0.7183133036682662 1.0000   
         H         H         1.0       0.04322264768383436           0.7026009580080963 0.7746035816244162 1.0000   
         H         H         1.0       0.0054072965289933975         0.7106178133180765 0.7973462339091043 1.0000   
         H         H         1.0       0.4718273509462686  0.6328768801822735  0.7493510651481801 1.0000   
         H         H         1.0       0.5176161811432252  0.6319119436238195  0.7410473889611522 1.0000   
         C         C         1.0       0.4947016511658419  0.876064209659921   0.6812886142237373 1.0000   
         C         C         1.0       0.003756314991491724          0.8837093162296582 0.6640470625705049 1.0000   
         C         C         1.0       0.008511966173174823          0.8881796016501352 0.694045989373612  1.0000   
         C         C         1.0       0.49288527652708436           0.8807770275279386 0.7435902180592174 1.0000   
         C         C         1.0       0.4708528269171922  0.8608889567139387  0.7293910043067499 1.0000   
         C         C         1.0       0.47226148627557013           0.8582737122804964 0.6979218713101628 1.0000   
         H         H         1.0       0.01971019000815821           0.8904895419141006 0.6456594896461025 1.0000   
         H         H         1.0       0.029743974850344072          0.9013004924045119 0.6999243045137669 1.0000   
         H         H         1.0       0.4526266346400689  0.8463596143672671  0.7407443607916052 1.0000   
         H         H         1.0       0.454552147685189   0.8422948489649393  0.6864172274886841 1.0000   
         C         C         1.0       0.44625434783064105           0.8838500225860915 0.7852839244084904 1.0000   
         C         C         1.0       0.46234272235155977           0.8752992245310414 0.7955055529248669 1.0000   
         C         C         1.0       0.45569637627389387           0.867635708443645  0.8249576459447697 1.0000   
         C         C         1.0       0.43523361680358025           0.8702681330627278 0.843056868680421  1.0000   
         C         C         1.0       0.42135573510904606           0.8802430950966428 0.8324876837624042 1.0000   
         C         C         1.0       0.4258297146279886  0.8856428291921923  0.8035041092616115 1.0000   
         C         C         1.0       0.49119417161282475           0.8822240111043116 0.7800595273197845 1.0000   
         C         C         1.0       0.012617696190741507          0.9128081256329085 0.7618146398215239 1.0000   
         C         C         1.0       0.02552199606331036           0.9205792740130434 0.7888162307565324 1.0000   
         C         C         1.0       0.03850662679927946           0.9473570557619636 0.8015835339941924 1.0000   
         C         C         1.0       0.03806440359643259           0.9672129472144659 0.7881623748886074 1.0000   
         C         C         1.0       0.023048883555175252          0.9586622807647827 0.7624367997097191 1.0000   
         C         C         1.0       0.508105143006086   0.9325946583786783  0.7847327338437338 1.0000   
         C         C         1.0       0.4816402669455988  0.8323727471695007  0.7826960812045236 1.0000   
         C         C         1.0       0.4888168283061514  0.8144853593223806  0.790492337599113  1.0000   
         C         C         1.0       0.006421168007774028          0.8254144611866155 0.781575839252431  1.0000   
         C         C         1.0       0.02799789534178553           0.848839983079048  0.7709179964192652 1.0000   
         C         C         1.0       0.023865697715884406          0.8666863063440474 0.7609086595343745 1.0000   
         C         C         1.0       0.4993126327793952  0.85970547563867    0.7834841891707927 1.0000   
         C         C         1.0       0.008801342415754346          0.8096278566474977 0.805710982811472  1.0000   
         C         C         1.0       0.48228324996604416           0.8439673465531777 0.8924916581934763 1.0000   
         C         C         1.0       0.46545099859744643           0.8198071835086645 0.8775577932509131 1.0000   
         C         C         1.0       0.4761033493005228  0.8059597222349535  0.8577103450011204 1.0000   
         C         C         1.0       0.004223065313878833          0.8278683612750357 0.8342288526153919 1.0000   
         C         C         1.0       0.02622627641226281           0.8508714420842269 0.847250671743466  1.0000   
         C         C         1.0       0.02185175397759615           0.8669280476523126 0.8698165954819675 1.0000   
         C         C         1.0       0.03584703675057448           0.80998659846482   0.8047102741802208 1.0000   
         C         C         1.0       0.05566736806734755           0.8166260702483848 0.7801447721720611 1.0000   
         C         C         1.0       0.08039893515983061           0.8194693273890316 0.7832515028167135 1.0000   
         C         C         1.0       0.08628478205800183           0.8148833519961125 0.8090735237600376 1.0000   
         C         C         1.0       0.06722191546370088           0.8072985221273304 0.833633364712972  1.0000   
         C         C         1.0       0.04251580272052651           0.8055903696983796 0.8314607244075342 1.0000   
         C         C         1.0       0.49247213262527595           0.7579870447813889 0.8312101208777082 1.0000   
         C         C         1.0       0.47869279783328345           0.730901206005818  0.8212375362772117 1.0000   
         C         C         1.0       0.47935852459395084           0.7228285974989899 0.7902382681383702 1.0000   
         C         C         1.0       0.4955065319443312  0.7412318837195083  0.7702303112437343 1.0000   
         C         C         1.0       0.5058921384449356  0.7669448501019505  0.780058265951731  1.0000   
         C         C         1.0       0.5050658358690606  0.7766178754189478  0.8107547174038542 1.0000   
         H         H         1.0       0.4510356529044845  0.890757699928936   0.7628002383174156 1.0000   
         H         H         1.0       0.46542003193898324           0.858717889595135  0.8350911594072674 1.0000   
         H         H         1.0       0.4351328525343159  0.8686021228723403  0.8664383851854434 1.0000   
         H         H         1.0       0.41273409060450933           0.8883213242810457 0.791623646210974  1.0000   
         H         H         1.0       0.02240595326583508           0.9056423435536325 0.8030318691409873 1.0000   
         H         H         1.0       0.04933593057260152           0.9515054389095358 0.8205064867769755 1.0000   
         H         H         1.0       0.020609118010067748          0.9735660368372288 0.753855185631972  1.0000   
         H         H         1.0       0.4985453519006002  0.9292668937034377  0.7635117796463715 1.0000   
         H         H         1.0       0.4606244144462755  0.8255665572474379  0.7767236243438698 1.0000   
         H         H         1.0       0.4722005900775183  0.7939352172048391  0.7926029904219923 1.0000   
         H         H         1.0       0.04956823438569644           0.8555939276419787 0.7755395449381421 1.0000   
         H         H         1.0       0.04070327525333098           0.8859873252956758 0.7576247350864538 1.0000   
         H         H         1.0       0.44381533792513106           0.8118065812967588 0.8820576253175815 1.0000   
         H         H         1.0       0.4632715891465301  0.7885478088341236  0.8447472772798098 1.0000   
         H         H         1.0       0.04691428500953858           0.8568854652218563 0.8398645509795806 1.0000   
         H         H         1.0       0.03837583318637344           0.8844402702050618 0.8807839580942693 1.0000   
         H         H         1.0       0.052226636071537415          0.8181183274546872 0.7578637722525045 1.0000   
         H         H         1.0       0.09310446602864264           0.8230298887269829 0.7631098077343451 1.0000   
         H         H         1.0       0.07442302059640717           0.8065214030970965 0.8550792710280876 1.0000   
         H         H         1.0       0.028179381776729205          0.7992413607488382 0.8498109875996711 1.0000   
         H         H         1.0       0.48796625618981304           0.7615416701071859 0.8557109434255227 1.0000   
         H         H         1.0       0.4704335930811378  0.7170508074333072  0.8371738945522776 1.0000   
         H         H         1.0       0.49547372983295174           0.7354956011508634 0.7444557605336453 1.0000   
         H         H         1.0       0.0031754715111691977         0.778206259720051  0.7557657701822047 1.0000   
         C         C         1.0       0.2896794429226185  0.8921148464854194  0.9104325029103412 1.0000   
         C         C         1.0       0.28396622258142334           0.8681950438996945 0.8936062821619397 1.0000   
         C         C         1.0       0.26654383415078886           0.8582956507699017 0.8707139885525722 1.0000   
         C         C         1.0       0.2541320631661411  0.8710584075126734  0.8613880004740596 1.0000   
         C         C         1.0       0.26058503640537806           0.895954404396506  0.8782078001832286 1.0000   
         C         C         1.0       0.27832620239375006           0.9064981371640162 0.9015941705476404 1.0000   
         H         H         1.0       0.291993264028036   0.8547652296547946  0.897002094848157  1.0000   
         H         H         1.0       0.2647908176126948  0.8401087837661952  0.8558438232057326 1.0000   
         H         H         1.0       0.25351583963343166           0.9082931692510083 0.8707257774936413 1.0000   
         H         H         1.0       0.28679320344794773           0.9269728683461131 0.9107814419924576 1.0000   
         C         C         1.0       0.19467714011241194           0.8581051559453251 0.8572289875779172 1.0000   
         C         C         1.0       0.21415324084190324           0.8648368027381313 0.8329401621463022 1.0000   
         C         C         1.0       0.20613167735568977           0.8682798971976808 0.8067073207949195 1.0000   
         C         C         1.0       0.1804163383143712  0.8637653474119149  0.804689035798283  1.0000   
         C         C         1.0       0.16042274194663952           0.8546697999382996 0.828404117490553  1.0000   
         C         C         1.0       0.16853889167569247           0.8528798836200059 0.8545404516771196 1.0000   
         C         C         1.0       0.23955978583479395           0.8609122278246585 0.8303538891013946 1.0000   
         C         C         1.0       0.22649255601359433           0.8299430266805908 0.8176786641928485 1.0000   
         C         C         1.0       0.2261171415684695  0.8214346991479928  0.786244596613818  1.0000   
         C         C         1.0       0.20878227918061074           0.7960013512136058 0.7744937132290697 1.0000   
         C         C         1.0       0.19203506565479475           0.7776582303353269 0.7945502480012385 1.0000   
         C         C         1.0       0.19355399153220135           0.7839924800701702 0.8258621949518954 1.0000   
         C         C         1.0       0.2093148108794245  0.8095617913372608  0.8367869552313721 1.0000   
         C         C         1.0       0.27237987316938234           0.9050887032472904 0.8044754425991015 1.0000   
         C         C         1.0       0.29634058795487134           0.9219317321078538 0.7919645414504239 1.0000   
         C         C         1.0       0.31702239924778547           0.9152632988830312 0.7864136784363045 1.0000   
         C         C         1.0       0.30938331911247113           0.8887469282483117 0.7845253493138692 1.0000   
         C         C         1.0       0.28505899386660194           0.8716674307499996 0.7978520983205103 1.0000   
         C         C         1.0       0.2655779863403715  0.8788247268589722  0.8088321087841288 1.0000   
         C         C         1.0       0.3484292775170265  0.9380177384136696  0.7822935689222338 1.0000   
         C         C         1.0       0.3506301837539381  0.9067674695922241  0.6885078670664824 1.0000   
         C         C         1.0       0.340660999434499   0.9243347867545868  0.6970122659829018 1.0000   
         C         C         1.0       0.34141176959982655           0.9355961391096383 0.7256833042312253 1.0000   
         C         C         1.0       0.353004203987298   0.9298632788829119  0.747105982101577  1.0000   
         C         C         1.0       0.36442315294639277           0.9138695934943836 0.7376192181594312 1.0000   
         C         C         1.0       0.363608670860121   0.9020811204557746  0.7077491151954204 1.0000   
         C         C         1.0       0.368267923565173   0.936466430894412   0.8033007068404826 1.0000   
         C         C         1.0       0.3965966569168554  0.9456037228046593  0.7976275500476401 1.0000   
         C         C         1.0       0.41003563054547365           0.9394792491448147 0.8149359213181001 1.0000   
         C         C         1.0       0.39696501679558477           0.9250200078478312 0.8394646701372647 1.0000   
         C         C         1.0       0.3700443108061692  0.9182639165374291  0.8481866857574407 1.0000   
         C         C         1.0       0.35595740433798395           0.9224398778613371 0.828884687287458  1.0000   
         C         C         1.0       0.36896315289016446           0.9872523784459081 0.7725776758143262 1.0000   
         C         C         1.0       0.3709538653631662  0.011976463856003372         0.7793436462933221 1.0000   
         C         C         1.0       0.3638715097308345  0.02017957856034669           0.8076376404105603 1.0000   
         C         C         1.0       0.34748252977780475           0.0007002929977666383        0.8262000990351611 1.0000   
         C         C         1.0       0.3411706097415419  0.9741659590979199  0.8176617340644047 1.0000   
         C         C         1.0       0.3523959392387163  0.9669610231937129  0.7913077809748481 1.0000   
         H         H         1.0       0.19919791637658063           0.851933695024129  0.8758109879496112 1.0000   
         H         H         1.0       0.219353197154074   0.8724383057814749  0.7860940493600949 1.0000   
         H         H         1.0       0.17658833588389872           0.8678851216352906 0.7840056361984568 1.0000   
         H         H         1.0       0.1534683436905451  0.8444486619105971  0.8738067083442624 1.0000   
         H         H         1.0       0.23737028392960327           0.8338570692538555 0.7683238852948253 1.0000   
         H         H         1.0       0.20921665641534098           0.7912665150210787 0.7498125562135805 1.0000   
         H         H         1.0       0.18390337457592212           0.7680448531664062 0.8400633048198722 1.0000   
         H         H         1.0       0.21042983669519563           0.8145913625315555 0.860224925317556  1.0000   
         H         H         1.0       0.25830661609575906           0.9124798871763371 0.8125606610897738 1.0000   
         H         H         1.0       0.29815620326073977           0.9417094675561426 0.7910087242487662 1.0000   
         H         H         1.0       0.3242477992969144  0.8821998140118666  0.7809798702827041 1.0000   
         H         H         1.0       0.28227697450007583           0.8535549275373681 0.8048241324339557 1.0000   
         H         H         1.0       0.3318520759598696  0.9287904625972802  0.6803715428094187 1.0000   
         H         H         1.0       0.3322901968964371  0.9494393261746159  0.7340310761875016 1.0000   
         H         H         1.0       0.37301356629997434           0.9061153618579584 0.7503162900449526 1.0000   
         H         H         1.0       0.3740437837581997  0.8919907827604099  0.699726473081167  1.0000   
         H         H         1.0       0.40568618811275037           0.9530841649124069 0.7777150866721025 1.0000   
         H         H         1.0       0.4312683380368416  0.9439383384296165  0.8078248722189848 1.0000   
         H         H         1.0       0.3597766018593601  0.9095395640572395  0.869918261035814  1.0000   
         H         H         1.0       0.3349285733006033  0.9176618118083004  0.8361370511313538 1.0000   
         H         H         1.0       0.3785663531453064  0.9840107223811283  0.7500560805339056 1.0000   
         H         H         1.0       0.38407127983740597           0.028848277007314183         0.765072560403796  1.0000   
         H         H         1.0       0.34043491590156116           0.005357326898866699         0.8489000113877727 1.0000   
         H         H         1.0       0.3290928185613194  0.9608906722891943  0.8357808169357183 1.0000   
         C         C         1.0       0.09768746369640349           0.9600743735559054 0.12348103200103312          1.0000   
         C         C         1.0       0.09197963602983159           0.978074485401244  0.14327390383672622          1.0000   
         C         C         1.0       0.09395249134649908           0.9803705060277232 0.17365734571588676          1.0000   
         C         C         1.0       0.09517398029068054           0.9604496197621782 0.18623652022491807          1.0000   
         C         C         1.0       0.10424204402123441           0.9447727047164428 0.16701844873820165          1.0000   
         C         C         1.0       0.10581849990610855           0.9448578274905867 0.13609710827523913          1.0000   
         H         H         1.0       0.08612304087900075           0.9912472793593688 0.13410972300092056          1.0000   
         H         H         1.0       0.08940915965090128           0.995468482452303  0.18728763301936938          1.0000   
         H         H         1.0       0.10626177096743869           0.9299522541800994 0.177253171774537  1.0000   
         H         H         1.0       0.10838086646399424           0.9290555893951435 0.12324630735872183          1.0000   
         C         C         1.0       0.06362774883263336           0.9060959821360057 0.21932004972972263          1.0000   
         C         C         1.0       0.08159540860535963           0.930053197930073  0.23531674627881358          1.0000   
         C         C         1.0       0.08767347767790229           0.9275144840343328 0.2633670073207774 1.0000   
         C         C         1.0       0.07959407587599555           0.9022602465468987 0.27194758570912075          1.0000   
         C         C         1.0       0.06615153709730694           0.8796062112724665 0.25309131299286175          1.0000   
         C         C         1.0       0.05794329391025575           0.8814563793863627 0.22720459834296367          1.0000   
         C         C         1.0       0.08897275644053958           0.9577738980182565 0.2224661712106926 1.0000   
         C         C         1.0       0.06244320514006311           0.9596510058864647 0.23764388723995658          1.0000   
         C         C         1.0       0.05957281515160468           0.9686063665104867 0.2681961508273299 1.0000   
         C         C         1.0       0.03885721284347578           0.97487706893064   0.27890225632848814          1.0000   
         C         C         1.0       0.5122329906674862  0.988405090304838   0.22419071368439705          1.0000   
         C         C         1.0       0.5005666883560008  0.9619772859627536  0.21069620319878124          1.0000   
         C         C         1.0       0.04085409698155393           0.953816641087444  0.21953455420318946          1.0000   
         C         C         1.0       0.13908887350886198           0.9799487811511637 0.23929019294619389          1.0000   
         C         C         1.0       0.13227925330633986           0.49979391608897344          0.23450502460975295          1.0000   
         C         C         1.0       0.13998719976205767           0.5265137629805402 0.2454780160782565 1.0000   
         C         C         1.0       0.1251234472211476  0.5370600408286234  0.23785290607159396          1.0000   
         C         C         1.0       0.10497553261673405           0.5225618396022499 0.21806108965698426          1.0000   
         C         C         1.0       0.11688691706496708           0.9817562065090852 0.2349527356055266 1.0000   
         C         C         1.0       0.15937365950880358           0.5403316349268343 0.2730002767943127 1.0000   
         C         C         1.0       0.09445115465065368           0.5140210450257631 0.3459861988209877 1.0000   
         C         C         1.0       0.10536623002967559           0.49841252199091407          0.3312969048045357 1.0000   
         C         C         1.0       0.1257534949102956  0.5072106178574741  0.3093808638145762 1.0000   
         C         C         1.0       0.1356039188340282  0.5319878945236153  0.30049727459142156          1.0000   
         C         C         1.0       0.12454382409399753           0.5477025562182872 0.31400053495079916          1.0000   
         C         C         1.0       0.10453194476516234           0.5392409849713635 0.33723191312505224          1.0000   
         C         C         1.0       0.1781790664671036  0.5713979026263202  0.27734228720342907          1.0000   
         C         C         1.0       0.1871639240272048  0.5845160888866049  0.2511957429442599 1.0000   
         C         C         1.0       0.20584444858277112           0.6115844167959884 0.25238253385763026          1.0000   
         C         C         1.0       0.21549714505343132           0.6257608492684281 0.27919202944931065          1.0000   
         C         C         1.0       0.20698824318713835           0.6138884609799582 0.30563195296734846          1.0000   
         C         C         1.0       0.18872601587124424           0.5868209941016593 0.3047088198171664 1.0000   
         C         C         1.0       0.1920801293824345  0.5313600728748484  0.2982196505261582 1.0000   
         C         C         1.0       0.2170944875234998  0.5323219228903838  0.2970639915664982 1.0000   
         C         C         1.0       0.23120975015365797           0.5306592370254548 0.26880800457026   1.0000   
         C         C         1.0       0.2191786216513878  0.5261157113978654  0.24176159002023523          1.0000   
         C         C         1.0       0.19556500789366635           0.5277038293616511 0.2433972915105144 1.0000   
         C         C         1.0       0.18230606584347503           0.531762585623866  0.2719418145485632 1.0000   
         H         H         1.0       0.05455973162843246           0.905749629698588  0.19938955327367125          1.0000   
         H         H         1.0       0.09619109587268097           0.9456764155079834 0.27841816889351867          1.0000   
         H         H         1.0       0.08774095987686963           0.9043329850890521 0.29299936976976465          1.0000   
         H         H         1.0       0.04569616794064014           0.8650699727858473 0.2122769095579253 1.0000   
         H         H         1.0       0.07489942599356196           0.972922856052132  0.28260792779746935          1.0000   
         H         H         1.0       0.03778027696547918           0.9833102202476471 0.30209211265801506          1.0000   
         H         H         1.0       0.4848624145084555  0.9544306764492345  0.19628585739741208          1.0000   
         H         H         1.0       0.03850897886107174           0.9436419472857078 0.19656934311258842          1.0000   
         H         H         1.0       0.13907180757940435           0.9606225119073397 0.23458466382524557          1.0000   
         H         H         1.0       0.17696371394366278           0.9989024953220215 0.2574645010873766 1.0000   
         H         H         1.0       0.13056043935018266           0.557565508417604  0.24545523893873444          1.0000   
         H         H         1.0       0.09475420164793924           0.5324552342542431 0.21217551774347115          1.0000   
         H         H         1.0       0.09774537127090498           0.4788923627459314 0.3380050530107265 1.0000   
         H         H         1.0       0.1339483102572293  0.49362806424074845           0.2989529756463688 1.0000   
         H         H         1.0       0.13087154437934273           0.5663438747452413 0.30527177801539973          1.0000   
         H         H         1.0       0.09657672360943957           0.5523801326104311 0.3470573215148921 1.0000   
         H         H         1.0       0.18022227736839488           0.5748313443572628 0.22885428608646946          1.0000   
         H         H         1.0       0.21398427072539133           0.6203393411816747 0.2308048125918221 1.0000   
         H         H         1.0       0.21525651276678445           0.6248517118897131 0.3270200613379284 1.0000   
         H         H         1.0       0.18309091384475687           0.5771157730455369 0.3257839193171338 1.0000   
         H         H         1.0       0.18337411920352947           0.537180575320575  0.3181961557053933 1.0000   
         H         H         1.0       0.22635114258465625           0.5338316317456022 0.31702149460070017          1.0000   
         H         H         1.0       0.2320345474244902  0.5227808764885543  0.2223523625275829 1.0000   
         H         H         1.0       0.1887318674009729  0.527622957136832   0.2218235113380471 1.0000   
         C         C         1.0       0.35689188612093364           0.7800699867101002 0.15739836914914737          1.0000   
         C         C         1.0       0.33468051386946257           0.7690177092137508 0.1792385201018526 1.0000   
         C         C         1.0       0.33819137170921043           0.7618377154975357 0.20556175290541412          1.0000   
         C         C         1.0       0.3622228033315261  0.7634960061325717  0.21084303633577778          1.0000   
         C         C         1.0       0.3835022750169274  0.7730140651630112  0.18859822530642623          1.0000   
         C         C         1.0       0.38124918654336637           0.7828673925969504 0.1637922471291172 1.0000   
         H         H         1.0       0.3160461404129596  0.7660512703243066  0.17428894006992177          1.0000   
         H         H         1.0       0.32012298324818117           0.7557037791476505 0.22092145271350735          1.0000   
         H         H         1.0       0.40237990264247425           0.7750030423026639 0.18942153380473475          1.0000   
         H         H         1.0       0.39919975933295043           0.7928961201127517 0.14924769495851029          1.0000   
         C         C         1.0       0.39256024156460123           0.7290016012375858 0.21501355893469112          1.0000   
         C         C         1.0       0.38769254183048246           0.744048448215211  0.23933063300145727          1.0000   
         C         C         1.0       0.3991472848440114  0.7468424642247428  0.2658556524028105 1.0000   
         C         C         1.0       0.40894217687599405           0.7306214745328845 0.26995080989030784          1.0000   
         C         C         1.0       0.4118343179418737  0.7139885011414471  0.24550067846080065          1.0000   
         C         C         1.0       0.40368302816200896           0.7131629876500057 0.21747481627500218          1.0000   
         C         C         1.0       0.36475481715431046           0.7526472167480565 0.23991238309258928          1.0000   
         C         C         1.0       0.3373947914014729  0.7256430727144861  0.24888659035686309          1.0000   
         C         C         1.0       0.3310387638963058  0.7191638401723338  0.27903054634360075          1.0000   
         C         C         1.0       0.3082610951459806  0.6965268950386541  0.285545327121101  1.0000   
         C         C         1.0       0.2923128250079556  0.6769810579040565  0.2624937624699297 1.0000   
         C         C         1.0       0.300514447348961   0.6817572612663617  0.2329108455447191 1.0000   
         C         C         1.0       0.32275235669851626           0.7060448453003257 0.22578261623669385          1.0000   
         C         C         1.0       0.3993626646949886  0.7997345892098945  0.26222269609553667          1.0000   
         C         C         1.0       0.40783018540753074           0.8221301851520965 0.2821760186469392 1.0000   
         C         C         1.0       0.39058138067824205           0.8267508942052711 0.3054015953380208 1.0000   
         C         C         1.0       0.36364466471886364           0.806599756964684  0.30580912430067525          1.0000   
         C         C         1.0       0.3552369107357805  0.7838110699552707  0.28479805612779263          1.0000   
         C         C         1.0       0.3725425186061549  0.7794415620824399  0.2636816809709806 1.0000   
         C         C         1.0       0.40129213822768534           0.8556125304549911 0.3256143316515613 1.0000   
         C         C         1.0       0.37210349297838125           0.8573409592064792 0.4204936223403761 1.0000   
         C         C         1.0       0.37515088088354015           0.8764119098363428 0.4028321982915464 1.0000   
         C         C         1.0       0.38302029327417414           0.8743426678953798 0.37204732583115424          1.0000   
         C         C         1.0       0.3869856579748486  0.8533192554588496  0.35828169225439094          1.0000   
         C         C         1.0       0.38247576391575167           0.8337354798470857 0.3758526721930391 1.0000   
         C         C         1.0       0.3752664014906105  0.8366727947206817  0.40712722594886724          1.0000   
         C         C         1.0       0.3942980109446515  0.8713353899635901  0.3043487177950804 1.0000   
         C         C         1.0       0.4119541263687886  0.8844948491027487  0.2806332304965282 1.0000   
         C         C         1.0       0.4062748803247703  0.8983129613503857  0.26326323859604445          1.0000   
         C         C         1.0       0.3813887705886275  0.8982903085818086  0.26858529775330314          1.0000   
         C         C         1.0       0.3619889456422303  0.882689984902618   0.2884437544334038 1.0000   
         C         C         1.0       0.36835400862578677           0.8699583678407355 0.3063926631300779 1.0000   
         C         C         1.0       0.44122921507333634           0.8506001484419938 0.3407244778142259 1.0000   
         C         C         1.0       0.4681935012520432  0.8611451464323452  0.3477873112061533 1.0000   
         C         C         1.0       0.48461441981217684           0.8883088908993507 0.3497448744926629 1.0000   
         C         C         1.0       0.4757080114094986  0.9048737192725291  0.3420600587513464 1.0000   
         C         C         1.0       0.44905318693673807           0.8939327558178979 0.33455372072340195          1.0000   
         C         C         1.0       0.4316750931600727  0.8666755390734846  0.3336713944630568 1.0000   
         H         H         1.0       0.38442086852220964           0.7268201055262141 0.19410667251155922          1.0000   
         H         H         1.0       0.39763120573511224           0.758818904914967  0.28636397120702267          1.0000   
         H         H         1.0       0.41346917690026086           0.7304258762108311 0.29080471701834176          1.0000   
         H         H         1.0       0.40511635191144735           0.7002897076827508 0.19826802334682223          1.0000   
         H         H         1.0       0.3440035053584184  0.7325804537895128  0.296882099855724  1.0000   
         H         H         1.0       0.3039127891584324  0.6913837165359751  0.30773812641462484          1.0000   
         H         H         1.0       0.28999159942830804           0.6651163096895996 0.2156822208458753 1.0000   
         H         H         1.0       0.3272554436077694  0.7095652826732725  0.20247884024866153          1.0000   
         H         H         1.0       0.41671087673961427           0.7994047676769291 0.2480804232969925 1.0000   
         H         H         1.0       0.42961267239447876           0.8388902852344943 0.2786146517240577 1.0000   
         H         H         1.0       0.3493014739694794  0.8078161139956473  0.3237118079024006 1.0000   
         H         H         1.0       0.33312438647501136           0.7688905140525318 0.2863478295308185 1.0000   
         H         H         1.0       0.37469789398369496           0.8947806186592057 0.4123542735457414 1.0000   
         H         H         1.0       0.3885802414010899  0.8915394840375753  0.3589369856140346 1.0000   
         H         H         1.0       0.3862066343339854  0.8174884075896207  0.3679374581758775 1.0000   
         H         H         1.0       0.37362334666370506           0.8219364328725699 0.4202985558685338 1.0000   
         H         H         1.0       0.43168449700107203           0.8862909452486896 0.27714264019949675          1.0000   
         H         H         1.0       0.42139557379238723           0.9084898802268618 0.24660992281154312          1.0000   
         H         H         1.0       0.34085984191886365           0.8794089285536298 0.2935930082579575 1.0000   
         H         H         1.0       0.3522852026339852  0.8586798089908573  0.32196252322102015          1.0000   
         H         H         1.0       0.4298617969973171  0.8280793556442696  0.3383738688138117 1.0000   
         H         H         1.0       0.47623613923287084           0.8487339808130798 0.35502536616187436          1.0000   
         H         H         1.0       0.4891737969410645  0.9255278190843758  0.34243882314201546          1.0000   
         H         H         1.0       0.44424749887639736           0.9073204867276634 0.32598171423600464          1.0000   
         C         C         1.0       0.45953747223458463           0.5595735135470917 0.40063935684183843          1.0000   
         C         C         1.0       0.4723750696169085  0.553346689466827   0.37499246350153764          1.0000   
         C         C         1.0       0.4563243547358994  0.5364395759174262  0.3525177807878138 1.0000   
         C         C         1.0       0.42907673155433923           0.5287932605526675 0.35308280874506376          1.0000   
         C         C         1.0       0.4174630262075162  0.5370605719316878  0.3786690742373022 1.0000   
         C         C         1.0       0.43245583783655883           0.5522987253119445 0.4024411796513896 1.0000   
         H         H         1.0       0.49349982219110816           0.5576099882775938 0.37272584311780743          1.0000   
         H         H         1.0       0.467331739909561   0.5337408420845489  0.33116445150774015          1.0000   
         H         H         1.0       0.3967642693663976  0.532386811193368   0.378656367033721  1.0000   
         H         H         1.0       0.42363517941981804           0.5602764659712257 0.42009026804327004          1.0000   
         C         C         1.0       0.4164434357645772  0.9911658244837914  0.3129057247561825 1.0000   
         C         C         1.0       0.4187231629058368  0.012294037468656649         0.29749503686147516          1.0000   
         C         C         1.0       0.4033003155655785  0.00443408724708938           0.27234842690467415          1.0000   
         C         C         1.0       0.38568605287620283           0.9789477444370762 0.26376016238866873          1.0000   
         C         C         1.0       0.3839941452187662  0.9591968286015152  0.2788321242004971 1.0000   
         C         C         1.0       0.3986956026692707  0.965865498907968   0.30362866673847505          1.0000   
         C         C         1.0       0.4122831547301831  0.5105033812770109  0.32624710418329483          1.0000   
         C         C         1.0       0.4244922431791219  0.497627912229071   0.29874908894439783          1.0000   
         C         C         1.0       0.41859157889955084           0.49430965862412046          0.2685009770851835 1.0000   
         C         C         1.0       0.4253502879855358  0.47904726606551945           0.24710003824445684          1.0000   
         C         C         1.0       0.43899672271564766           0.46693370920385674          0.2538867447482239 1.0000   
         C         C         1.0       0.44705916689853487           0.47019582491202916          0.28262299663457935          1.0000   
         C         C         1.0       0.43913587085493155           0.484659754106693  0.30445335410287244          1.0000   
         C         C         1.0       0.3804506506044398  0.5280701449544222  0.31355661742843427          1.0000   
         C         C         1.0       0.37542086201115626           0.5400524717570535 0.2934168280988566 1.0000   
         C         C         1.0       0.39672094454749024           0.5611877829729612 0.27909796213523025          1.0000   
         C         C         1.0       0.4231628822308676  0.5671175432426289  0.28370618208393256          1.0000   
         C         C         1.0       0.4280950665109142  0.5537015189834348  0.3014088364130854 1.0000   
         C         C         1.0       0.40640440942098577           0.5314886035244766 0.31403472398508114          1.0000   
         C         C         1.0       0.39127906198824397           0.572356834035496  0.2502734651063304 1.0000   
         C         C         1.0       0.4126009988222438  0.525350914683508   0.1756620879240254 1.0000   
         C         C         1.0       0.3861982451210492  0.5132663335230199  0.18793122114517474          1.0000   
         C         C         1.0       0.37796064141329117           0.5255546041758216 0.2117950881479177 1.0000   
         C         C         1.0       0.39660948634963117           0.5520660534085211 0.22285478263461617          1.0000   
         C         C         1.0       0.4229402601135926  0.5643917879991582  0.20927254561261874          1.0000   
         C         C         1.0       0.43069698734792183           0.5509331156039776 0.18514148901311167          1.0000   
         C         C         1.0       0.40962894324865534           0.6031142534171878 0.24943738194970125          1.0000   
         C         C         1.0       0.4170938219795681  0.6199326527806571  0.2763820682038543 1.0000   
         C         C         1.0       0.42643190761020655           0.647811459148628  0.2744420919768416 1.0000   
         C         C         1.0       0.42774115682341973           0.6568990721583853 0.24696499537292976          1.0000   
         C         C         1.0       0.4230951529916368  0.6399301251002828  0.22138959369472494          1.0000   
         C         C         1.0       0.414534753561007   0.6141082338869652  0.22190159849156552          1.0000   
         C         C         1.0       0.34958417483507553           0.5639056955970296 0.2243226843033185 1.0000   
         C         C         1.0       0.3239252612063132  0.5602675567364022  0.2260892571766248 1.0000   
         C         C         1.0       0.3109042113205834  0.5629096024926739  0.2541714462649502 1.0000   
         C         C         1.0       0.3245839729170789  0.5702432029363828  0.27933813922246037          1.0000   
         C         C         1.0       0.3505715155697751  0.5744685905433896  0.2775966309866605 1.0000   
         C         C         1.0       0.36271922217590186           0.5700497053983362 0.25037661992423654          1.0000   
         H         H         1.0       0.4262676214902604  0.9971816620395346  0.33439477799657014          1.0000   
         H         H         1.0       0.40370599820142355           0.0187076863089517 0.25947469806482787          1.0000   
         H         H         1.0       0.37374091606602267           0.9751235256975305 0.24499353500669013          1.0000   
         H         H         1.0       0.39665589250309763           0.9492305515209898 0.3146455946449205 1.0000   
         H         H         1.0       0.40857729986368657           0.5030317871454536 0.2611482358759933 1.0000   
         H         H         1.0       0.41923413960479794           0.4757244195985181 0.22374231812587317          1.0000   
         H         H         1.0       0.4551762176843461  0.45852821507323593           0.28595196759807734          1.0000   
         H         H         1.0       0.44230471892030643           0.48241903266488534          0.326939709215242  1.0000   
         H         H         1.0       0.3633240134245806  0.5128100388166522  0.3274387468228498 1.0000   
         H         H         1.0       0.3539870543397655  0.5325442594228387  0.29200784215358716          1.0000   
         H         H         1.0       0.44001524235773276           0.5838479998249444 0.27234491221522966          1.0000   
         H         H         1.0       0.44917041891965015           0.557485646330026  0.3028174522998699 1.0000   
         H         H         1.0       0.36820821268071297           0.017554108198197804         0.19228072324047185          1.0000   
         H         H         1.0       0.3570608092153356  0.5166842013174882  0.21951322781030316          1.0000   
         H         H         1.0       0.4397698364494528  0.5838457388471964  0.21648480108313412          1.0000   
         H         H         1.0       0.4524019674158591  0.5603893636662547  0.17594053806197996          1.0000   
         H         H         1.0       0.41487917855422424           0.6139339187165961 0.2985183470690681 1.0000   
         H         H         1.0       0.42680735920643564           0.659989364599783  0.29548030650427665          1.0000   
         H         H         1.0       0.4242315711250481  0.6458007484747996  0.20001463077713982          1.0000   
         H         H         1.0       0.4075839715081129  0.600436718960884   0.20084241060367916          1.0000   
         H         H         1.0       0.35989054242689766           0.5623571051560161 0.20247000195123463          1.0000   
         H         H         1.0       0.31456852062358415           0.5577104119006563 0.2052482164053088 1.0000   
         H         H         1.0       0.3170929879575413  0.5735527364552526  0.30214859462820787          1.0000   
         H         H         1.0       0.36132951892407567           0.5823058410928971 0.2978821347774072 1.0000   
         C         C         1.0       0.42226344800788007           0.9815649076702856 0.15255744600032556          1.0000   
         C         C         1.0       0.44667657227417973           0.9814524673046819 0.14699889795370502          1.0000   
         C         C         1.0       0.44784877226767555           0.9595145640031519 0.13308617040372112          1.0000   
         C         C         1.0       0.42606319959129124           0.9363600087364077 0.12200638016941834          1.0000   
         C         C         1.0       0.40207363556420467           0.9371157706059873 0.12613116264696142          1.0000   
         C         C         1.0       0.40013129443089374           0.9581123736895827 0.14266034372746514          1.0000   
         H         H         1.0       0.4657198142133214  0.9998782668785117  0.15268732010845118          1.0000   
         H         H         1.0       0.4680723618737153  0.9623108770484714  0.1296810218213313 1.0000   
         H         H         1.0       0.3830844702021348  0.920133184446578   0.11883296110855929          1.0000   
         H         H         1.0       0.3797429213521124  0.9572808676342138  0.14550947076367257          1.0000   
         C         C         1.0       0.38860461834949184           0.8780474693532225 0.136119827783435  1.0000   
         C         C         1.0       0.40283058862169596           0.8828958646057197 0.1070021115819746 1.0000   
         C         C         1.0       0.3976860970836832  0.8606334650245562  0.08590992606429365          1.0000   
         C         C         1.0       0.37803987058145744           0.8365323301645388 0.09165235719420357          1.0000   
         C         C         1.0       0.36252507969104547           0.8314733177835872 0.11885311507630733          1.0000   
         C         C         1.0       0.3691705829726094  0.8528825941336753  0.14138048635714548          1.0000   
         C         C         1.0       0.4273575029269655  0.9112071265418655  0.10055590298278887          1.0000   
         C         C         1.0       0.4530746370041225  0.907414847400573   0.10448804296514991          1.0000   
         C         C         1.0       0.4642780176655346  0.8979674755053972  0.07930124546888737          1.0000   
         C         C         1.0       0.025836224001621923          0.9271599898294864 0.062252145737242824         1.0000   
         C         C         1.0       0.034091303366968896          0.9296479727270479 0.0898408339232369 1.0000   
         C         C         1.0       0.021134063031474123          0.9367629944845604 0.1142022865411482 1.0000   
         C         C         1.0       0.4586155071920611  0.9050409000751009  0.13264295731851475          1.0000   
         C         C         1.0       0.4061244443075004  0.9096627047795315  0.052001561906855585         1.0000   
         C         C         1.0       0.4072589469536298  0.9212411345567338  0.02691766965290724          1.0000   
         C         C         1.0       0.4298828998899781  0.9426601872385045  0.016926834032699123         1.0000   
         C         C         1.0       0.4519687479407793  0.9529663851708209  0.03369532564263242          1.0000   
         C         C         1.0       0.4510585034102923  0.94109612051875    0.05938360001331016          1.0000   
         C         C         1.0       0.4279642431079228  0.9197604194887348  0.06927455770321578          1.0000   
         C         C         1.0       0.4318836816798864  0.9525307424817179  0.9847861100256118 1.0000   
         C         C         1.0       0.46742772999564247           0.9062651944483913 0.9265172740189888 1.0000   
         C         C         1.0       0.43923250523241203           0.8963321742120898 0.9304333769977555 1.0000   
         C         C         1.0       0.4285482349523056  0.9110147573005267  0.9495044227866283 1.0000   
         C         C         1.0       0.44515054885223043           0.936315310430227  0.9633996525197187 1.0000   
         C         C         1.0       0.4734925099720698  0.9454649707922204  0.9592055535240388 1.0000   
         C         C         1.0       0.4844968916358639  0.9307031570406611  0.9426245797666319 1.0000   
         C         C         1.0       0.4502132452282996  0.984659026058645   0.9877829169921798 1.0000   
         C         C         1.0       0.4464975502720241  0.00043121524403311184       0.013212768736094782         1.0000   
         C         C         1.0       0.46849629763890177           0.5418045569702802 0.003063475278274108         1.0000   
         C         C         1.0       0.4889698247235557  0.555650826141909   0.9826665028441118 1.0000   
         C         C         1.0       0.4934846470363584  0.543622547823847   0.9544627677856168 1.0000   
         C         C         1.0       0.4700411460814484  0.9973095617798028  0.9649573114691642 1.0000   
         C         C         1.0       0.4050393474534648  0.9504677063809401  0.9433688932403781 1.0000   
         C         C         1.0       0.3826603351231444  0.9459412704171836  0.9306085781598765 1.0000   
         C         C         1.0       0.3593424500586021  0.9408344292550673  0.9479865468821339 1.0000   
         C         C         1.0       0.35953641294241034           0.943136483482754  0.9784713112201834 1.0000   
         C         C         1.0       0.3823553678112277  0.9467574667903516  0.9911896157700925 1.0000   
         C         C         1.0       0.40488652806494174           0.948679834574456  0.9728041547236205 1.0000   
         H         H         1.0       0.39226084633312025           0.8934078857519879 0.15425556138173793          1.0000   
         H         H         1.0       0.4087254794882146  0.8650720467784795  0.06483721424394859          1.0000   
         H         H         1.0       0.3750932765031428  0.8204631241618299  0.07406064076538349          1.0000   
         H         H         1.0       0.35794099537946505           0.848458004574499  0.1629956467048866 1.0000   
         H         H         1.0       0.4635464258212565  0.9004437512157543  0.0572440863200599 1.0000   
         H         H         1.0       0.03625105174025425           0.9223352820538484 0.04157077316410561          1.0000   
         H         H         1.0       0.027916526543499565          0.9380022402934587 0.13681528647991845          1.0000   
         H         H         1.0       0.4481618680730883  0.9101481049561464  0.15256364456904736          1.0000   
         H         H         1.0       0.38678493018455296           0.8923958463605257 0.05778576175006507          1.0000   
         H         H         1.0       0.38928155898029637           0.911899404101173  0.01521833591610311          1.0000   
         H         H         1.0       0.4688983631139724  0.969968985536012   0.027286070109328736         1.0000   
         H         H         1.0       0.4672731649894351  0.9511298615541084  0.07376548503096042          1.0000   
         H         H         1.0       0.4257286913018516  0.8752512585998883  0.9254373861836872 1.0000   
         H         H         1.0       0.4067687726160215  0.9027460303828388  0.9544231501571875 1.0000   
         H         H         1.0       0.488342013881296   0.9648152248338104  0.9700800456975273 1.0000   
         H         H         1.0       0.5061821325007783  0.938487276775111   0.9441671622803988 1.0000   
         H         H         1.0       0.434046528441863   0.9920712716196048  0.033028139627951404         1.0000   
         H         H         1.0       0.4651597394837751  0.5521645286585911  0.024546082091740154         1.0000   
         H         H         1.0       0.511093981602542   0.5560076767276083  0.9388811564665036 1.0000   
         H         H         1.0       0.4719774846448676  0.9862931136741436  0.9432179806047587 1.0000   
         H         H         1.0       0.423478564901492   0.9555919333183298  0.9274967713665935 1.0000   
         H         H         1.0       0.38393804894937406           0.9444611772678616 0.9064064946939349 1.0000   
         H         H         1.0       0.33989662844528484           0.9392624647208734 0.9924751526726829 1.0000   
         H         H         1.0       0.38256643070894275           0.949966774544982  0.015866675963802868         1.0000   
         C         C         1.0       0.42261406381859523           0.006130800149539262         0.16967366567364273          1.0000   
         C         C         1.0       0.4212097598982042  0.512135333491556   0.1494718223999954 1.0000   
         H         H         1.0       0.43908224719527744           0.49826006947945256          0.1788325747254339 1.0000   
         H         H         1.0       0.4096457547929525  0.00014102171967933508       0.1911138165015188 1.0000   
         H         H         1.0       0.39232472272355734           0.007730361973946609         0.1447137786607364 1.0000   
         H         H         1.0       0.44134622390221556           0.5265342736386204 0.13834351070127346          1.0000   
         C         C         1.0       0.34065922772262486           0.8022759724364265 0.1227186097105009 1.0000   
         C         C         1.0       0.3520485432516647  0.7834012838598273  0.12568037867635037          1.0000   
         H         H         1.0       0.32552334298107083           0.8005013566853001 0.14221157324079944          1.0000   
         H         H         1.0       0.32726514450358324           0.7944338721321907 0.10262395137389933          1.0000   
         H         H         1.0       0.3360418268638217  0.7627305948494464  0.11791022888087752          1.0000   
         H         H         1.0       0.36853259488369744           0.7853540585416795 0.10915143676224903          1.0000   
         C         C         1.0       0.37571424493525646           0.9139508494360685 0.24954227976378685          1.0000   
         C         C         1.0       0.361852073061587   0.9296405547758423  0.2690178995738023 1.0000   
         H         H         1.0       0.39475144124155825           0.9273489666839715 0.23714528574231972          1.0000   
         H         H         1.0       0.3638996553822962  0.9033334299296649  0.23109283319807739          1.0000   
         H         H         1.0       0.35016589350822824           0.921172780275034  0.2884523739497395 1.0000   
         H         H         1.0       0.3461945180775854  0.9305745015376076  0.2565092929831606 1.0000   
         C         C         1.0       0.40930169120528753           0.6881679243048946 0.2516941056000627 1.0000   
         C         C         1.0       0.43500317856981613           0.6849670535482    0.24329207194281702          1.0000   
         H         H         1.0       0.3916495059604924  0.6705933315029022  0.24054685576482077          1.0000   
         H         H         1.0       0.40266479175894376           0.6851499723560392 0.2767212496453989 1.0000   
         H         H         1.0       0.45110787961162463           0.6999920269682609 0.26037339282491706          1.0000   
         H         H         1.0       0.44628911796286413           0.6919189275811969 0.2216284606272646 1.0000   
         C         C         1.0       0.0872715180355779  0.9512070678811403  0.09234448252475011          1.0000   
         C         C         1.0       0.05903171618733447           0.9261472715417254 0.09074867924055069          1.0000   
         H         H         1.0       0.08861688280315433           0.9682395088811152 0.0816169189586604 1.0000   
         H         H         1.0       0.10354575765925188           0.9483669850917872 0.07695961326047082          1.0000   
         H         H         1.0       0.055265134993637256          0.9118727601208929 0.10670900605510644          1.0000   
         H         H         1.0       0.0599300293849694  0.9128869997385753  0.07069471136017512          1.0000   
         C         C         1.0       0.5061773692528633  0.006569717047049117         0.20857623246199183          1.0000   
         C         C         1.0       0.44088945485295544           0.4458648725148711 0.23010083031436246          1.0000   
         H         H         1.0       0.5127910680349554  0.005233807563131743         0.18508823887166867          1.0000   
         H         H         1.0       0.48325250860475283           0.9958407560976454 0.20977876397951845          1.0000   
         H         H         1.0       0.4371888048108392  0.44851464361614174           0.20700526938740874          1.0000   
         H         H         1.0       0.4246632351834221  0.42673405653764074           0.23667982418675643          1.0000   
         C         C         1.0       0.25925874937644816           0.5317568091684955 0.270209450904569  1.0000   
         C         C         1.0       0.281051867501176   0.558260199525194   0.2560827153716365 1.0000   
         H         H         1.0       0.264862088960433   0.5308976664572083  0.2928426928175782 1.0000   
         H         H         1.0       0.26023561786366345           0.5148669095978454 0.2571198178037185 1.0000   
         H         H         1.0       0.273845484216435   0.5591115949322593  0.23369935629720223          1.0000   
         H         H         1.0       0.2815222662062837  0.575581922068898   0.2700607930104674 1.0000   
         C         C         1.0       0.2417630020117658  0.6536218943296633  0.27657863264173493          1.0000   
         C         C         1.0       0.266461047647263   0.6497456742428653  0.26998587790898676          1.0000   
         H         H         1.0       0.24104686893074914           0.6637251525401081 0.25949253013796997          1.0000   
         H         H         1.0       0.24430502958320574           0.6652800262517192 0.2998412152564803 1.0000   
         H         H         1.0       0.26324112517850357           0.6359301968172167 0.2515060034174499 1.0000   
         H         H         1.0       0.2688482242288846  0.6392767635708674  0.2870672291278542 1.0000   
         C         C         1.0       0.055245718704586944          0.8535087833613562 0.2658868430287561 1.0000   
         C         C         1.0       0.5131746501510664  0.8999012160914263  0.35964249880775856          1.0000   
         H         H         1.0       0.5284454084688339  0.8780332767817767  0.3284582531416547 1.0000   
         H         H         1.0       0.07264286403445167           0.8520484889717762 0.2723712791605107 1.0000   
         H         H         1.0       0.04753714818725233           0.8639908557866754 0.31336437423277114          1.0000   
         H         H         1.0       0.5108528106709952  0.8891759928575456  0.38029716398057656          1.0000   
         C         C         1.0       0.333935657455168   0.9346563672858417  0.9329029947441322 1.0000   
         C         C         1.0       0.3129302364479444  0.9046698430551514  0.9328790477390118 1.0000   
         H         H         1.0       0.32563956291694524           0.9473984567247953 0.9415721783992261 1.0000   
         H         H         1.0       0.3401280360543282  0.9396223412928699  0.909705220840187  1.0000   
         H         H         1.0       0.30187209705899026           0.9016465008633164 0.9549325954419011 1.0000   
         H         H         1.0       0.3236872177190054  0.8924125033702603  0.9310565337977238 1.0000   
         C         C         1.0       0.4805374394091423  0.8902218670404567  0.9080241304525463 1.0000   
         C         C         1.0       0.4715699660873588  0.8614669713492188  0.9154328526210421 1.0000   
         H         H         1.0       0.4803404542947737  0.8900780068710259  0.8828536948659642 1.0000   
         H         H         1.0       0.5021097904894567  0.9006799051610301  0.9127674278181491 1.0000   
         H         H         1.0       0.44862630459853337           0.8510323737509674 0.9161353959338934 1.0000   
         H         H         1.0       0.47606431920339354           0.8624289683438066 0.9388249728601624 1.0000   
         C         C         1.0       0.11501412617698878           0.8182720069957546 0.8101461096642467 1.0000   
         C         C         1.0       0.13095491792843617           0.8458912133351632 0.8261295760659478 1.0000   
         H         H         1.0       0.12494748573872705           0.8166322688358828 0.7887404916868928 1.0000   
         H         H         1.0       0.11463477361275963           0.8018665356699723 0.8198430446042185 1.0000   
         H         H         1.0       0.12185138670680648           0.8482013681776656 0.8483855874707747 1.0000   
         H         H         1.0       0.12996266092814343           0.8593730089070817 0.8121928167088345 1.0000   
         C         C         1.0       0.4023724109119762  0.887555440838194   0.8554721235759754 1.0000   
         C         C         1.0       0.41131817557760864           0.9174700065245316 0.859518992285161  1.0000   
         H         H         1.0       0.38318850529405524           0.8786529900641595 0.8447463565503049 1.0000   
         H         H         1.0       0.400733450906316   0.8815099995256755  0.8781984615156732 1.0000   
         H         H         1.0       0.4080063397475097  0.926258593267929   0.8833470761439791 1.0000   
         H         H         1.0       0.4334542778278104  0.9281988500547887  0.8558382359186256 1.0000   
         C         C         1.0       0.49772880851098555           0.6034913661889327 0.9831144273838794 1.0000   
         C         C         1.0       0.5079164931060975  0.584841766704072   0.9909238553895291 1.0000   
         H         H         1.0       0.510094307780438   0.6252313910364017  0.992373251008313  1.0000   
         H         H         1.0       0.47779917539700545           0.5975440356661987 0.9960977807654916 1.0000   
         H         H         1.0       0.5285207934793722  0.5896264404870741  0.9799627862764464 1.0000   
         H         H         1.0       0.5098862880213137  0.5889760674654528  0.015247387185412409         1.0000   
         C         C         1.0       0.4642470597194173  0.6722133825612892  0.7853157220659133 1.0000   
         C         C         1.0       0.4597292576979088  0.6941843034286538  0.7758295234407818 1.0000   
         H         H         1.0       0.4480252567355797  0.653295603356262   0.7776431347393455 1.0000   
         H         H         1.0       0.46227949211034775           0.6720295061152823 0.8111048702419454 1.0000   
         H         H         1.0       0.43940234775461273           0.6890792644400812 0.7837201710515799 1.0000   
         H         H         1.0       0.4586497582870676  0.6928941264269123  0.7501298148489159 1.0000   
         C         C         1.0       0.0472638988115857  0.9950606626828045  0.8044955967882197 1.0000   
         C         C         1.0       0.5065160022132554  0.9893615896764886  0.8662749048029037 1.0000   
         H         H         1.0       0.05210705833218868           0.010120020984362377         0.7890090250778964 1.0000   
         H         H         1.0       0.06802708290957397           0.00197984154448827          0.8124117879996009 1.0000   
         H         H         1.0       0.5111136361301922  0.9910350380966426  0.890867915162033  1.0000   
         H         H         1.0       0.4886038973522192  0.970110962730319   0.8646650448149927 1.0000   
         C         C         1.0       0.14457701003256873           0.7498373088893276 0.7772138305064514 1.0000   
         C         C         1.0       0.17007978273209587           0.7491846867552678 0.782814603046821  1.0000   
         H         H         1.0       0.13823783995849695           0.7586830254105007 0.8001972888829658 1.0000   
         H         H         1.0       0.14808866265796236           0.7630744566303124 0.7583586156561023 1.0000   
         H         H         1.0       0.1786247818145833  0.7429425951504385  0.7617244568950303 1.0000   
         H         H         1.0       0.16621664311754897           0.7353161913555434 0.7999827289165866 1.0000   
         C         C         1.0       0.4110223029856233  0.5779645686397322  0.7909878628112468 1.0000   
         C         C         1.0       0.3809647899910526  0.5586965832968444  0.7996848302894364 1.0000   
         H         H         1.0       0.41755209876945637           0.6001981828704465 0.7951839613635465 1.0000   
         H         H         1.0       0.41660818885916423           0.5749232351425585 0.7672422054282643 1.0000   
         H         H         1.0       0.3681695002667836  0.564393071005797   0.7904960290396531 1.0000   
         H         H         1.0       0.3776827933022492  0.5626383194568773  0.825072370939832  1.0000   
         C         C         1.0       0.36601005965845085           0.8608292046733835 0.4544136109543779 1.0000   
         C         C         1.0       0.3916125297532442  0.8684585675681855  0.47120144624403787          1.0000   
         H         H         1.0       0.35888513181226056           0.8756304879410667 0.4611454560050996 1.0000   
         H         H         1.0       0.3480332422491825  0.8418475887565081  0.46287482808740277          1.0000   
         H         H         1.0       0.3998242645827643  0.8543215077610464  0.46496930562231   1.0000   
         H         H         1.0       0.3864490210380379  0.8675011058207708  0.49577693377859516          1.0000   
         C         C         1.0       0.4717708413514583  0.5647642748811171  0.4533895326743524 1.0000   
         C         C         1.0       0.4769251289930662  0.5785589513451481  0.4245434564761898 1.0000   
         H         H         1.0       0.45018945195677745           0.5543883627054337 0.46149500544262595          1.0000   
         H         H         1.0       0.48124838551894017           0.5820721618452666 0.47197147479918333          1.0000   
         H         H         1.0       0.49824512468371135           0.5882935058836638 0.414666321520487  1.0000   
         H         H         1.0       0.4726590383714408  0.595666043129916   0.43018859348150956          1.0000   
         C         C         1.0       0.045575892790806025          0.5021608621403179 0.35718136474442563          1.0000   
         C         C         1.0       0.06987025434150938           0.5014489536248767 0.3679495461332132 1.0000   
         H         H         1.0       0.03966559060134587           0.4894109240373551 0.3345918383047406 1.0000   
         H         H         1.0       0.04805310084953729           0.5220828041435096 0.3511220458547391 1.0000   
         H         H         1.0       0.06286085350873648           0.4805819860605441 0.3689928972507404 1.0000   
         H         H         1.0       0.07515632506934074           0.5111556209432391 0.39233548945510976          1.0000   
         C         C         1.0       0.34891927643704806           0.8967572055510635 0.6539539976653927 1.0000   
         C         C         1.0       0.36366385879913904           0.9174429733248028 0.6295592439592824 1.0000   
         H         H         1.0       0.35512653101889313           0.8814411938389356 0.6481702157180519 1.0000   
         H         H         1.0       0.32750160835548997           0.8832343485460395 0.6521459286991148 1.0000   
         H         H         1.0       0.3544360417041621  0.9096194103999586  0.6068207717342889 1.0000   
         H         H         1.0       0.3586892275585164  0.9338561409992313  0.6374025909125537 1.0000   
         C         C         1.0       0.01859458335298589           0.5589035628674376 0.6518116662509723 1.0000   
         C         C         1.0       0.03354718606655404           0.5873440295754138 0.6416700690949958 1.0000   
         H         H         1.0       0.5535528719016141  0.5731195254256322  0.6783719560345696 1.0000   
         H         H         1.0       0.03452943927489737           0.5561291094811176 0.6609604337914459 1.0000   
         H         H         1.0       0.05064260215202673           0.5892748120342646 0.6250181913378453 1.0000   
         H         H         1.0       0.022615287364813136          0.5895237487816866 0.6256123618095082 1.0000   
         C         C         1.0       0.49537640033575187           0.8718523404829291 0.6467231345999076 1.0000   
         C         C         1.0       0.4739108499824204  0.8763489389888318  0.6360829987174944 1.0000   
         H         H         1.0       0.9960757070307925  0.8768921310278288  0.606854714322346  1.0000   
         H         H         1.0       0.49180675373540184           0.8521815453902742 0.6375949151579604 1.0000   
         H         H         1.0       0.4556692014852843  0.8741221699740791  0.6533542373705077 1.0000   
         H         H         1.0       0.46509232542674567           0.8610003371922914 0.6168443959870972 1.0000   
         C         C         1.0       0.8921295647937237  0.38200020586288613           0.4465489774181187 1.0000   
         C         C         1.0       0.9188233364114018  0.3897192116075151  0.4354355855317071 1.0000   
         C         C         1.0       0.9368383156478679  0.41685233326226745           0.4323968199114295 1.0000   
         C         C         1.0       0.9291712074055464  0.4358784936931844  0.4415796720638964 1.0000   
         C         C         1.0       0.9016736733462977  0.42727908175665363           0.45249534029068755          1.0000   
         C         C         1.0       0.8842125495591495  0.40113285173193314           0.45642694749879953          1.0000   
         H         H         1.0       0.9269841499178924  0.37598726011730615           0.4296382422467337 1.0000   
         H         H         1.0       0.9583111750585712  0.4230724043832604  0.4280738220503153 1.0000   
         H         H         1.0       0.8935258868429407  0.4401489411282947  0.4616655857387778 1.0000   
         H         H         1.0       0.8635603309691974  0.39655436613810563           0.46327128629634423          1.0000   
         C         C         1.0       0.9183705563249702  0.47709580494261034           0.4176505892827948 1.0000   
         C         C         1.0       0.937674826341323   0.48573074989616066           0.43842804510440947          1.0000   
         C         C         1.0       0.9536450875510691  0.011787848559315438         0.4522712352449014 1.0000   
         C         C         1.0       0.934642893206793   0.01949864237676871           0.45095745951383115          1.0000   
         C         C         1.0       0.9116354770328873  0.0030800650411467014        0.43556846811808037          1.0000   
         C         C         1.0       0.9089247232861362  0.9791418450327696  0.41950224018245513          1.0000   
         C         C         1.0       0.9497079379510197  0.4675329785602998  0.44558622552526156          1.0000   
         C         C         1.0       0.9754336125856646  0.47593236461251975           0.42106650342394947          1.0000   
         C         C         1.0       0.5338239963728169  0.9992179736013924  0.4473919419812585 1.0000   
         C         C         1.0       0.5525837317888413  0.0018010743982557666        0.42310005359393144          1.0000   
         C         C         1.0       0.5441810940711833  0.9920555211314535  0.3945860155131896 1.0000   
         C         C         1.0       0.5583276290710839  0.5058526089601522  0.3877035573767253 1.0000   
         C         C         1.0       0.9728416745457853  0.4656653311107908  0.3907018222828947 1.0000   
         C         C         1.0       0.9374019082065069  0.4768158143055886  0.5025263437567924 1.0000   
         C         C         1.0       0.93626146589587    0.4747189064988315  0.5334399874526625 1.0000   
         C         C         1.0       0.9526477837014505  0.4667808089696108  0.543394501246472  1.0000   
         C         C         1.0       0.9735178444793169  0.4665318632123396  0.5234845899648555 1.0000   
         C         C         1.0       0.9725473086440486  0.4652905951112337  0.4926186580991856 1.0000   
         C         C         1.0       0.9534733245013439  0.46989082614838196           0.48095819930800165          1.0000   
         C         C         1.0       0.9492088141706306  0.46068859184076155           0.5780916453802198 1.0000   
         C         C         1.0       0.8639198469428259  0.4217560393787828  0.6129504124891212 1.0000   
         C         C         1.0       0.8822653005228046  0.44026177979713715           0.6317960582230816 1.0000   
         C         C         1.0       0.9099005588465782  0.4509114342302616  0.6224190686529952 1.0000   
         C         C         1.0       0.9191020331124801  0.446831353762174   0.5924523427688807 1.0000   
         C         C         1.0       0.8987986932724853  0.42696683602408675           0.5740833217348184 1.0000   
         C         C         1.0       0.8717519023374932  0.4147057324723256  0.5848844653616192 1.0000   
         C         C         1.0       0.9694362612666402  0.4890572937933016  0.594075986178271  1.0000   
         C         C         1.0       0.5540842002917905  0.5104957425098037  0.6108692931073609 1.0000   
         C         C         1.0       0.5388246407503503  0.03343894569495142           0.639744720367028  1.0000   
         C         C         1.0       0.5263731554248574  0.04876133596078938           0.6509583195788642 1.0000   
         C         C         1.0       0.9922597193839452  0.03841158039886812           0.6175027371674724 1.0000   
         C         C         1.0       0.9595555629588454  0.5065515420241139  0.605358024084054  1.0000   
         C         C         1.0       0.960264276758753   0.4362816875133928  0.6121133338963417 1.0000   
         C         C         1.0       0.9571887088975127  0.41193124932034925           0.6187736305391024 1.0000   
         C         C         1.0       0.9508763100596502  0.3902080263274504  0.5965343461602376 1.0000   
         C         C         1.0       0.9474517365903767  0.39286950590960695           0.5671225652528099 1.0000   
         C         C         1.0       0.9507207410770028  0.41736199383423833           0.5607808744948423 1.0000   
         C         C         1.0       0.9546535426785008  0.4378936874973575  0.5834247837333357 1.0000   
         H         H         1.0       0.9113928035031169  0.45835833810748566           0.403892419926872  1.0000   
         H         H         1.0       0.9716701539595507  0.023242617417945487         0.46584815726033874          1.0000   
         H         H         1.0       0.9361113669852389  0.03586469209684845           0.4667134598180828 1.0000   
         H         H         1.0       0.8911572940730893  0.9640735618506449  0.40851761263916947          1.0000   
         H         H         1.0       0.5397459432842617  0.00820655623545535           0.4694874757900407 1.0000   
         H         H         1.0       0.5748827200112023  0.01177193056313784           0.42483662741255257          1.0000   
         H         H         1.0       0.5540983491184176  0.49731911463738915           0.3631745111791223 1.0000   
         H         H         1.0       0.9522220261875768  0.44904296348552347           0.38379533781808695          1.0000   
         H         H         1.0       0.9219005141806749  0.47832109633936754           0.49267517174180275          1.0000   
         H         H         1.0       0.9235776114270896  0.48086765621041466           0.5490251999807586 1.0000   
         H         H         1.0       0.5483181251547854  0.47843342878365763           0.5440043597865385 1.0000   
         H         H         1.0       0.5467722668998743  0.4814334211664607  0.4881859723090981 1.0000   
         H         H         1.0       0.8776384007136302  0.45017765245407404           0.6531831627346909 1.0000   
         H         H         1.0       0.9234126339023554  0.46429297558490273           0.6388123507584357 1.0000   
         H         H         1.0       0.9025772837830531  0.4206387099728976  0.5504926085600906 1.0000   
         H         H         1.0       0.8572950358323687  0.39778026985281345           0.5713393116264104 1.0000   
         H         H         1.0       0.5621547318376022  0.49816171272749526           0.6019172582116519 1.0000   
         H         H         1.0       0.5578205049608432  0.037357848867202934         0.6451215236168802 1.0000   
         H         H         1.0       0.9853795030378807  0.05372035691563669           0.6235611656708289 1.0000   
         H         H         1.0       0.9394145613591953  0.50066351186278    0.6018318585851254 1.0000   
         H         H         1.0       0.967511829540913   0.4526522941305846  0.6296953073708742 1.0000   
         H         H         1.0       0.9589856398648436  0.40898457151634154           0.64091134515109   1.0000   
         H         H         1.0       0.9431641863324777  0.3766974829987532  0.5495241836993181 1.0000   
         H         H         1.0       0.9446529973074685  0.4184116154096652  0.5403115817874058 1.0000   
         C         C         1.0       0.0022711896540914545         0.0983874485721989 0.9405075426869307 1.0000   
         C         C         1.0       0.02569172578854695           0.11467823152427652          0.922853290857674  1.0000   
         C         C         1.0       0.025301825705684955          0.11120406376770552          0.8921718774292673 1.0000   
         C         C         1.0       0.0007600841229833399         0.09106359802393604          0.8784149682056477 1.0000   
         C         C         1.0       0.9786339089938885  0.0763537291898617  0.8967532250481456 1.0000   
         C         C         1.0       0.9792205347913154  0.0801084119494381  0.9276715755764074 1.0000   
         H         H         1.0       0.044289246685490946          0.12738631818371837          0.9334866142285465 1.0000   
         H         H         1.0       0.5291627225823503  0.1103776049442882  0.9044895061603426 1.0000   
         H         H         1.0       0.9588589974394056  0.06111399054667232           0.8877626612526069 1.0000   
         H         H         1.0       0.9633989782219543  0.06814821686005632           0.9430933479850914 1.0000   
         C         C         1.0       0.9621774690641918  0.09599854996907103           0.8431502936256768 1.0000   
         C         C         1.0       0.9730035828861479  0.07966729967987288           0.832141871193239  1.0000   
         C         C         1.0       0.9618793057309869  0.06031300312899649           0.8072127475076517 1.0000   
         C         C         1.0       0.9435295673516056  0.06124344315372828           0.7918404755969629 1.0000   
         C         C         1.0       0.9332165689316945  0.07859547690553342           0.80162865964202   1.0000   
         C         C         1.0       0.9436039691906091  0.09695808699960627           0.8266240443341316 1.0000   
         C         C         1.0       0.0003665451066452441         0.08436549476036291          0.8435452046780281 1.0000   
         C         C         1.0       0.007586338524075753          0.06036915008450968          0.8403214002235304 1.0000   
         C         C         1.0       0.03433600506197476           0.06619959147251193          0.8387587622449453 1.0000   
         C         C         1.0       0.5213270574558572  0.03623350775309607           0.8591167212915284 1.0000   
         C         C         1.0       0.9965584606507509  0.5045664865544898  0.839298066003941  1.0000   
         C         C         1.0       0.9710397220395405  0.5028369348503385  0.8491072460206909 1.0000   
         C         C         1.0       0.987906343003511   0.03440956898306511           0.8401511795717953 1.0000   
         C         C         1.0       0.5108941282060325  0.09567355766100123           0.822071934744757  1.0000   
         C         C         1.0       0.5207519156821656  0.11379222267511842           0.8014349491162832 1.0000   
         C         C         1.0       0.5312962242303872  0.14030796308838603           0.8102628866641043 1.0000   
         C         C         1.0       0.5297768601643305  0.14872545316786717           0.8417134874869273 1.0000   
         C         C         1.0       0.02966481570311763           0.134601428265693  0.8305623866371491 1.0000   
         C         C         1.0       0.02198024526132869           0.10777684994785942          0.8226182706577878 1.0000   
         C         C         1.0       0.54267543064624    0.1616999540362065  0.7858421839654885 1.0000   
         C         C         1.0       0.5515846794771652  0.11981139195089531           0.6967791540735552 1.0000   
         C         C         1.0       0.5443416469730521  0.1394190037570303  0.6979198979747945 1.0000   
         C         C         1.0       0.5420897795898643  0.15437653478555707           0.7249926088597565 1.0000   
         C         C         1.0       0.5487812123510344  0.15000212031490878           0.7513325611675982 1.0000   
         C         C         1.0       0.5634204298815964  0.13547676880237702           0.7476012176213298 1.0000   
         C         C         1.0       0.5633080010235785  0.1192892994547722  0.7206502777806513 1.0000   
         C         C         1.0       0.5706522072541937  0.18505878182709923           0.7908900119595424 1.0000   
         C         C         1.0       0.5881064801652496  0.18239080450000567           0.8074131456781996 1.0000   
         C         C         1.0       0.6129656747829132  0.20398820943947277           0.8156852473287941 1.0000   
         C         C         1.0       0.6208689533345659  0.2289141316488277  0.8089266883684516 1.0000   
         C         C         1.0       0.6051395262258779  0.23210731184874211           0.7902504609473316 1.0000   
         C         C         1.0       0.5811050107992519  0.2106302894468736  0.7818971988972524 1.0000   
         C         C         1.0       0.5181483949555564  0.18793028508143175           0.8076950947249983 1.0000   
         C         C         1.0       0.4951250158709072  0.1897148819721703  0.817130841390409  1.0000   
         C         C         1.0       0.980680755696597   0.17128492001005413           0.7803011886476853 1.0000   
         C         C         1.0       0.9772965385124981  0.14603914506962598           0.7699588386849275 1.0000   
         C         C         1.0       0.999656592795656   0.14520159378089498           0.7560141643865875 1.0000   
         C         C         1.0       0.5185273165113085  0.16729937586785265           0.7877993809574098 1.0000   
         H         H         1.0       0.9657285564692761  0.10762509105867006           0.8658171793271507 1.0000   
         H         H         1.0       0.9685777443114548  0.044952287634463746         0.801189106617718  1.0000   
         H         H         1.0       0.9370014381046717  0.04712031936486078           0.7712834262724406 1.0000   
         H         H         1.0       0.9332228852925775  0.10826936175190631           0.835284139470503  1.0000   
         H         H         1.0       0.5356866483420555  0.07672530157918087           0.8598493051813925 1.0000   
         H         H         1.0       0.5428724014551348  0.04119797780042824           0.8511351919298724 1.0000   
         H         H         1.0       0.9524987174708056  0.4829469761426845  0.8472034314699836 1.0000   
         H         H         1.0       0.9668472624862627  0.02943148081269768           0.8444065293074838 1.0000   
         H         H         1.0       0.02168350371223471           0.07861176958027086          0.7858394936608954 1.0000   
         H         H         1.0       0.5192541222297562  0.10598511840824244           0.7779080267012243 1.0000   
         H         H         1.0       0.5387984974849649  0.16945057840662553           0.8487717351099687 1.0000   
         H         H         1.0       0.024621778886019463          0.14219614467330952          0.8531230992722538 1.0000   
         H         H         1.0       0.5378089322444971  0.14306566030590656           0.6775980425214999 1.0000   
         H         H         1.0       0.535533735768668   0.1695969901671236  0.7239938309629919 1.0000   
         H         H         1.0       0.572946402801373   0.13394108108983158           0.7657872389827833 1.0000   
         H         H         1.0       0.5725906600577556  0.10642068512600802           0.7183299934804923 1.0000   
         H         H         1.0       0.584937150191209   0.16349399639063572           0.8123364042256903 1.0000   
         H         H         1.0       0.6242330319193424  0.1979840905446419  0.8265224086896552 1.0000   
         H         H         1.0       0.6113963289997757  0.24937883828638027           0.7823160570200262 1.0000   
         H         H         1.0       0.5690770846310179  0.21319062808668549           0.768050185435401  1.0000   
         H         H         1.0       0.5369928502559669  0.20448636998784817           0.8189497844257987 1.0000   
         H         H         1.0       0.49469292005237286           0.20596275322453983          0.8321632605668214 1.0000   
         H         H         1.0       0.9585271755513592  0.12738458813453096           0.7709023218766125 1.0000   
         H         H         1.0       0.9984748220419694  0.12592211980474566           0.7476634431373977 1.0000   
         C         C         1.0       0.9745388428361194  0.3688896616786204  0.6490107822066095 1.0000   
         C         C         1.0       0.5267011333085988  0.3841121237494032  0.6847529959453557 1.0000   
         C         C         1.0       0.5227324406631298  0.386461715243624   0.7157215858517421 1.0000   
         C         C         1.0       0.9787535466766027  0.37365504599038446           0.7108478366688483 1.0000   
         C         C         1.0       0.9540215458647109  0.35524865121709276           0.6981324743849902 1.0000   
         C         C         1.0       0.951440537558041   0.35466517086611726           0.6683545028881623 1.0000   
         H         H         1.0       0.548505829831274   0.39148137018167334           0.67382899546311   1.0000   
         H         H         1.0       0.5407246626238026  0.39780428563563225           0.7292784588282304 1.0000   
         H         H         1.0       0.9365420645278214  0.3410485934093022  0.7127485723738547 1.0000   
         H         H         1.0       0.9320074299302664  0.33983156234755907           0.6589960547400215 1.0000   
         C         C         1.0       0.9393058936191403  0.3839743793478919  0.7610278283429702 1.0000   
         C         C         1.0       0.9564927709730205  0.3753425936971857  0.7686409373753029 1.0000   
         C         C         1.0       0.9528807375841831  0.36974023970131936           0.7989443206969636 1.0000   
         C         C         1.0       0.9356421600981394  0.37343443928072007           0.8192127216284479 1.0000   
         C         C         1.0       0.9208834988666953  0.3828965290909696  0.8106462336087725 1.0000   
         C         C         1.0       0.9215861785880375  0.38795765173673963           0.7819225262117001 1.0000   
         C         C         1.0       0.981739332776418   0.3775994762698248  0.7457565257717329 1.0000   
         C         C         1.0       0.5134500468824922  0.410733640303462   0.7816747683447618 1.0000   
         C         C         1.0       0.5158381440362136  0.41557863766098607           0.812442740432647  1.0000   
         C         C         1.0       0.5275978847441066  0.44061965427867233           0.8284604629484981 1.0000   
         C         C         1.0       0.5367966971955601  0.4629398750982333  0.8123545460440343 1.0000   
         C         C         1.0       0.534937011695372   0.4586969261409637  0.7814327693293882 1.0000   
         C         C         1.0       0.00268076201561529           0.42879834266654343          0.7460265562146141 1.0000   
         C         C         1.0       0.9725223586908815  0.3334705581211189  0.7578847319103781 1.0000   
         C         C         1.0       0.9795646505484028  0.31859122958444913           0.7711618539074795 1.0000   
         C         C         1.0       0.5047682780801093  0.32375902517292626           0.803775804008238  1.0000   
         C         C         1.0       0.5260876646501129  0.3476652855368026  0.7996849474017068 1.0000   
         C         C         1.0       0.5234638931956982  0.3654093872551254  0.7853669859187055 1.0000   
         C         C         1.0       0.9918683692564035  0.35775727297469617           0.7496500355026785 1.0000   
         C         C         1.0       0.5055129176106756  0.3074785021801601  0.829754254985065  1.0000   
         C         C         1.0       0.00039915168008675117        0.36019990427320986          0.8759711021138492 1.0000   
         C         C         1.0       0.979400872429042   0.33536784848759893           0.8682075618229383 1.0000   
         C         C         1.0       0.9827892460482959  0.31862287902162373           0.8444424519545762 1.0000   
         C         C         1.0       0.49466200002614574           0.3210765449093104 0.8585350128937618 1.0000   
         C         C         1.0       0.5140360741516043  0.34300351072584995           0.8754156647265918 1.0000   
         C         C         1.0       0.5087602214333237  0.36099556703314684           0.8938031578118419 1.0000   
         C         C         1.0       0.5343967098516409  0.30843119314179607           0.8317822727619898 1.0000   
         C         C         1.0       0.5549756950366863  0.3143747935592293  0.8073354422434976 1.0000   
         C         C         1.0       0.5799515383935594  0.31718297586279304           0.8107632984711493 1.0000   
         C         C         1.0       0.5852411726066795  0.3151877204949466  0.8388708448638876 1.0000   
         C         C         1.0       0.5653738751518597  0.30623728470828754           0.8615959651370512 1.0000   
         C         C         1.0       0.5403656983302045  0.30342183827177305           0.8582119570427083 1.0000   
         C         C         1.0       0.9875103590895072  0.2647426053298     0.8165888666670429 1.0000   
         C         C         1.0       0.972127481965679   0.23710304034117463           0.8118280709652684 1.0000   
         C         C         1.0       0.9680338240395041  0.22434485488641187           0.7832084035904106 1.0000   
         C         C         1.0       0.9788278125246154  0.2384405003711411  0.7584041892254948 1.0000   
         C         C         1.0       0.9908337461829997  0.26557967109884056           0.7625145703585986 1.0000   
         C         C         1.0       0.9966905433835911  0.27945763512323896           0.7921001732334332 1.0000   
         H         H         1.0       0.9380948090257419  0.3863183529224169  0.7386229513022143 1.0000   
         H         H         1.0       0.9662606382055804  0.3651472233042804  0.8089801792664055 1.0000   
         H         H         1.0       0.9341231274553452  0.3720485453566282  0.8436744066452723 1.0000   
         H         H         1.0       0.9098066777551906  0.39494194422692364           0.7754468326291796 1.0000   
         H         H         1.0       0.50775077723194    0.3986980046965586  0.8252365165168632 1.0000   
         H         H         1.0       0.527430717594117   0.4431165365720654  0.8528321895834419 1.0000   
         H         H         1.0       0.5412463373684732  0.47364130034550517           0.7659774127162462 1.0000   
         H         H         1.0       0.9971553760980002  0.42587685034049966           0.7224430585493337 1.0000   
         H         H         1.0       0.9518668344374508  0.32607575185464804           0.756845333226474  1.0000   
         H         H         1.0       0.9645789815988832  0.30197969600009444           0.7812152246246258 1.0000   
         H         H         1.0       0.5443050845636274  0.3552295106328665  0.8116500175624813 1.0000   
         H         H         1.0       0.5415664806856403  0.3849787438373542  0.782408214610111  1.0000   
         H         H         1.0       0.9581448146603203  0.3275034705934636  0.8758269902376027 1.0000   
         H         H         1.0       0.964876947209197   0.2989578776472607  0.8343185295197654 1.0000   
         H         H         1.0       0.5360452051121783  0.3501239575736088  0.8717054968659735 1.0000   
         H         H         1.0       0.5248505622991979  0.3800875253783336  0.9046415777578604 1.0000   
         H         H         1.0       0.5498277576900165  0.3137483408614219  0.7853957495176266 1.0000   
         H         H         1.0       0.5967082854032001  0.32261856423856816           0.7925353201228766 1.0000   
         H         H         1.0       0.5712407895225576  0.30677771228640704           0.8835562826118717 1.0000   
         H         H         1.0       0.5253214494871158  0.2949062670130092  0.8758415366770774 1.0000   
         H         H         1.0       0.9925995906293419  0.2740453434230019  0.8386906961523616 1.0000   
         H         H         1.0       0.9629367620494765  0.22355674761631844           0.8290079072033206 1.0000   
         H         H         1.0       0.9749073498981151  0.2271812212916041  0.7353108598563631 1.0000   
         H         H         1.0       0.4951278153985974  0.2737089742631882  0.7763440604141468 1.0000   
         C         C         1.0       0.7985239913352643  0.4046754123448427  0.913450697562072  1.0000   
         C         C         1.0       0.7949957892760503  0.38042016328475725           0.8974463709100113 1.0000   
         C         C         1.0       0.7766792166458523  0.3686256976055008  0.8754225309774554 1.0000   
         C         C         1.0       0.7621265842664265  0.38027639342325154           0.8683850298625335 1.0000   
         C         C         1.0       0.766829528127549   0.4040883286616537  0.8839631424444684 1.0000   
         C         C         1.0       0.7853712966848766  0.41675521152637723           0.9053512682170023 1.0000   
         H         H         1.0       0.8007620157871052  0.36721700789255146           0.9062791438585728 1.0000   
         H         H         1.0       0.7715213869078159  0.34820243185077077           0.8655683811107593 1.0000   
         H         H         1.0       0.7542046743976404  0.41198232017127356           0.880910268749809  1.0000   
         H         H         1.0       0.7850297661099201  0.4346395096656639  0.9185884424005879 1.0000   
         C         C         1.0       0.7008502990752148  0.36817557359116115           0.8734274857737139 1.0000   
         C         C         1.0       0.7165373675208517  0.3712833624987496  0.8454622546477586 1.0000   
         C         C         1.0       0.703384168937953   0.37002442805185287           0.8204975573647836 1.0000   
         C         C         1.0       0.6763176942870209  0.3629975282549093  0.822126886366936  1.0000   
         C         C         1.0       0.6618774498070165  0.36010732606693363           0.8493949164629105 1.0000   
         C         C         1.0       0.6738707227010037  0.3628517186657688  0.8758712708111662 1.0000   
         C         C         1.0       0.743178692243801   0.3677504598480003  0.8403161770775024 1.0000   
         C         C         1.0       0.7286896527110097  0.33618156732349047           0.8312621619396057 1.0000   
         C         C         1.0       0.7246845794508441  0.3246071867416119  0.8022242024126076 1.0000   
         C         C         1.0       0.7085854218673454  0.29748490600537786           0.7960955439649323 1.0000   
         C         C         1.0       0.6953317848543696  0.282302462238032   0.8199153543849473 1.0000   
         C         C         1.0       0.7042034482538405  0.2927707090907829  0.8484020376958622 1.0000   
         C         C         1.0       0.7207544520128045  0.32006348717417626           0.8546560512387306 1.0000   
         C         C         1.0       0.7683284748354227  0.4078736210463746  0.8115218705466665 1.0000   
         C         C         1.0       0.7918515004010133  0.4268624138277138  0.7975036225698979 1.0000   
         C         C         1.0       0.8131432637341865  0.42079436391295794           0.7896922680034043 1.0000   
         C         C         1.0       0.8077608360683382  0.3942261189406569  0.7885006242673387 1.0000   
         C         C         1.0       0.7845299700913182  0.3770463134277062  0.8030972351982109 1.0000   
         C         C         1.0       0.7652916372772215  0.3838767391670671  0.8151199441724889 1.0000   
         C         C         1.0       0.8432882649781429  0.4424390933778335  0.778067597699711  1.0000   
         C         C         1.0       0.8304505285599395  0.4090969444402281  0.6827004556413517 1.0000   
         C         C         1.0       0.8226936307931592  0.42750298658577174           0.6968101726757017 1.0000   
         C         C         1.0       0.8266796596805821  0.43764855486797327           0.7261475226951102 1.0000   
         C         C         1.0       0.8413330200779646  0.431261736615209   0.7430860492958256 1.0000   
         C         C         1.0       0.8505441108631273  0.41422096170640843           0.7283753266886441 1.0000   
         C         C         1.0       0.8465615561571692  0.4039828493408276  0.6978792499890809 1.0000   
         C         C         1.0       0.8648788931190152  0.4415616664299127  0.7969050154546826 1.0000   
         C         C         1.0       0.8902877745547255  0.4467866898463244  0.7840167820132802 1.0000   
         C         C         1.0       0.9065356546431078  0.4400867086451037  0.795982296157078  1.0000   
         C         C         1.0       0.8984253788364447  0.42924905605589914           0.8230975565313665 1.0000   
         C         C         1.0       0.8745282933918155  0.42592299150017093           0.8373166326486977 1.0000   
         C         C         1.0       0.8579192388659456  0.4319229240382911  0.8257481751817558 1.0000   
         C         C         1.0       0.8623512398511779  0.4913125705079906  0.766284752263563  1.0000   
         C         C         1.0       0.8656275917073823  0.5162283055880988  0.7729739251210824 1.0000   
         C         C         1.0       0.8596871021567872  0.5241850810591078  0.8026450931374725 1.0000   
         C         C         1.0       0.8490048799146317  0.5070743057985795  0.8249647499503825 1.0000   
         C         C         1.0       0.8442155296230307  0.48125744689114586           0.8170554801014766 1.0000   
         C         C         1.0       0.8505600155838129  0.47284559339158905           0.7872695559546168 1.0000   
         H         H         1.0       0.7093300749624891  0.3682556555730285  0.8928563228415196 1.0000   
         H         H         1.0       0.7115736888586279  0.36747292221355954           0.7972556841398034 1.0000   
         H         H         1.0       0.6667066412832894  0.3594838730405741  0.8003903195850115 1.0000   
         H         H         1.0       0.6615150415769481  0.35902713511958395           0.8965673232607979 1.0000   
         H         H         1.0       0.7354917186170161  0.3356355419302561  0.7819885086912423 1.0000   
         H         H         1.0       0.70069635931438    0.2868570160094597  0.773853869931632  1.0000   
         H         H         1.0       0.6937982830127214  0.28072803002197244           0.8679248076901929 1.0000   
         H         H         1.0       0.724948997481826   0.32923194541003614           0.8785171790990262 1.0000   
         H         H         1.0       0.7525849906938546  0.4136564486100009  0.8211237302252623 1.0000   
         H         H         1.0       0.7963496970166555  0.44724347041221124           0.7954664716348425 1.0000   
         H         H         1.0       0.8212600383729428  0.38686793292544147           0.7793226443802465 1.0000   
         H         H         1.0       0.7821358723441313  0.3581971878636324  0.8080060723994539 1.0000   
         H         H         1.0       0.8124191430997196  0.434067015301568   0.6851621091340986 1.0000   
         H         H         1.0       0.819584757612383   0.451833420969621   0.7356443824176849 1.0000   
         H         H         1.0       0.8596531081687311  0.4069756295374675  0.7420133062364668 1.0000   
         H         H         1.0       0.8545417968635578  0.3910687127876537  0.687442878708432  1.0000   
         H         H         1.0       0.898331506244994   0.4545966265890031  0.76185657564665   1.0000   
         H         H         1.0       0.9263513669089067  0.44329284411759906           0.7849743270308992 1.0000   
         H         H         1.0       0.8696979688226244  0.4204540420352816  0.8611861454060273 1.0000   
         H         H         1.0       0.8361717783591325  0.4235209975380301  0.8359894080535235 1.0000   
         H         H         1.0       0.8687433941272829  0.48480865487636166           0.743446431840761  1.0000   
         H         H         1.0       0.8770122522161174  0.5320066152561728  0.7569998629500705 1.0000   
         H         H         1.0       0.843729531564121   0.5129925615949382  0.8471948461523804 1.0000   
         H         H         1.0       0.8377787589508748  0.46894651550932676           0.8350811251424249 1.0000   
         C         C         1.0       0.5966122758622006  0.496527653674314   0.08142209277967563          1.0000   
         C         C         1.0       0.5857572832165349  0.5121629499697189  0.0980990476008966 1.0000   
         C         C         1.0       0.5812616106933435  0.5126591901265909  0.12941107371594004          1.0000   
         C         C         1.0       0.5885733639351036  0.4977154001288936  0.14380792363229525          1.0000   
         C         C         1.0       0.6051449703816791  0.48848117309608863           0.12808542137373777          1.0000   
         C         C         1.0       0.6087700907186715  0.4874602306055383  0.09686801914313095          1.0000   
         H         H         1.0       0.5802284511581263  0.5242150346780954  0.08738015732348597          1.0000   
         H         H         1.0       0.570918230413576   0.5224497106878649  0.14201134902383925          1.0000   
         H         H         1.0       0.6161327556025828  0.4819255752083805  0.1390632342968347 1.0000   
         H         H         1.0       0.6197635235432489  0.47857783996496683           0.08367157617812844          1.0000   
         C         C         1.0       0.5632860284622434  0.44157349769828236           0.17011807546133062          1.0000   
         C         C         1.0       0.5740508215970537  0.4659890088548205  0.18882044063423087          1.0000   
         C         C         1.0       0.5732611416435685  0.4640957570393107  0.21954790311186395          1.0000   
         C         C         1.0       0.5603826608702513  0.4403792756812774  0.23158742330823812          1.0000   
         C         C         1.0       0.5467788825381797  0.41649306112340695           0.21396917458980375          1.0000   
         C         C         1.0       0.5499568629162841  0.41750731402622476           0.1830316657349231 1.0000   
         C         C         1.0       0.5790078461052309  0.49349003846951606           0.17885578498670215          1.0000   
         C         C         1.0       0.5475949660395562  0.4872573273918201  0.188434751050267  1.0000   
         C         C         1.0       0.5400438338481751  0.4949333271451195  0.2170980286234719 1.0000   
         C         C         1.0       0.5126770581038292  0.4804802625286682  0.22868231990578133          1.0000   
         C         C         1.0       0.9972159441842526  0.4847405691829348  0.2142306367182786 1.0000   
         C         C         1.0       0.003244609114899877          0.4779377939763032 0.18480946078250995          1.0000   
         C         C         1.0       0.5270162358407686  0.4697665458512692  0.16928947137992045          1.0000   
         C         C         1.0       0.625880947688951   0.5173572580573991  0.20105117890323257          1.0000   
         C         C         1.0       0.6320179182928385  0.9779174689028028  0.22925279898253856          1.0000   
         C         C         1.0       0.6392494388289357  0.004243976308384756         0.22719126569213313          1.0000   
         C         C         1.0       0.6229960670567667  0.008064095873094264         0.21179563977547528          1.0000   
         C         C         1.0       0.5980122008518836  0.989221904139051   0.20512545871318222          1.0000   
         C         C         1.0       0.6029028308527895  0.5183933085937024  0.19556754298484572          1.0000   
         C         C         1.0       0.6602583749879226  0.02753506427374514           0.24916961896718007          1.0000   
         C         C         1.0       0.6069532665341694  0.019634502658913533         0.3305110765920066 1.0000   
         C         C         1.0       0.6247864040866383  0.00924221015892313           0.3279863146353561 1.0000   
         C         C         1.0       0.641078373691712   0.01054727136523418           0.30089841317982186          1.0000   
         C         C         1.0       0.640974681295161   0.025781044380426534         0.27937239739160225          1.0000   
         C         C         1.0       0.621433904527752   0.034149050383807715         0.2816361604597698 1.0000   
         C         C         1.0       0.6040665869551899  0.030303992634938895         0.3080733601008843 1.0000   
         C         C         1.0       0.6747842402424089  0.05727558717411887           0.23842962317088323          1.0000   
         C         C         1.0       0.6840873245572233  0.06100581143132486           0.20855628748200666          1.0000   
         C         C         1.0       0.7035834408256882  0.08603832422564721           0.2004595968350239 1.0000   
         C         C         1.0       0.7119032119864537  0.10743182226690609           0.22163231028777822          1.0000   
         C         C         1.0       0.7020469986344481  0.10450054914810648           0.2507328514407987 1.0000   
         C         C         1.0       0.6829384262000332  0.07950865381622597           0.25944329563070306          1.0000   
         C         C         1.0       0.7028112722946932  0.0410544505816405  0.2760813041538499 1.0000   
         C         C         1.0       0.7294898770785655  0.04646569074613621           0.2746587215888733 1.0000   
         C         C         1.0       0.7414103696091577  0.03742899169652392           0.24864042501042824          1.0000   
         C         C         1.0       0.7251651450272648  0.0217707780492682  0.2248066183347005 1.0000   
         C         C         1.0       0.6985696372298061  0.017153317593305607         0.22659357533653193          1.0000   
         C         C         1.0       0.6868701028003871  0.026987121159103032         0.2517230077210649 1.0000   
         H         H         1.0       0.5626974493255187  0.4407379765228951  0.1469703786667573 1.0000   
         H         H         1.0       0.5838120399449378  0.4828402030820808  0.23667448414287343          1.0000   
         H         H         1.0       0.5576032381148612  0.439983179837066   0.25614614790762025          1.0000   
         H         H         1.0       0.5352945877490167  0.3990680689066668  0.1704991287526228 1.0000   
         H         H         1.0       0.5540139903634979  0.5098199943104282  0.23284440901105496          1.0000   
         H         H         1.0       0.5070553251633407  0.48495005506791833           0.2511037196261699 1.0000   
         H         H         1.0       0.9880670226496432  0.470282696992803   0.16856979351501278          1.0000   
         H         H         1.0       0.5328640965881777  0.4646900470675129  0.14659597387901158          1.0000   
         H         H         1.0       0.628061193685185   0.4992996846901351  0.1957959693578123 1.0000   
         H         H         1.0       0.6634790163746275  0.5366102576329163  0.219797636209355  1.0000   
         H         H         1.0       0.6277253333947023  0.027035269511564767         0.2075866410948209 1.0000   
         H         H         1.0       0.5845222887016799  0.9949017298434457  0.19943744516285059          1.0000   
         H         H         1.0       0.6284826080468405  0.002532267424330647         0.34761577444500025          1.0000   
         H         H         1.0       0.651864298215278   0.9995189828924317  0.299071484464522  1.0000   
         H         H         1.0       0.6224394827076657  0.046908703111187465         0.265980316015193  1.0000   
         H         H         1.0       0.5897622981184819  0.03745172751076207           0.3110441878307062 1.0000   
         H         H         1.0       0.6793479357855238  0.0450353702030854  0.19039733456568048          1.0000   
         H         H         1.0       0.7105374032135521  0.08909485787346128           0.17658731753048038          1.0000   
         H         H         1.0       0.7125950866089183  0.1222174774781636  0.2668958156750331 1.0000   
         H         H         1.0       0.6762184261919968  0.07688656016287691           0.28293046376789155          1.0000   
         H         H         1.0       0.6931296087700751  0.04761721681320571           0.2956850903426979 1.0000   
         H         H         1.0       0.7408786887820291  0.05826578350927056           0.2949226872182295 1.0000   
         H         H         1.0       0.7328600624488355  0.01725937793516593           0.20223654049154335          1.0000   
         H         H         1.0       0.6864284754069985  0.005753578256073092         0.20851888962173845          1.0000   
         C         C         1.0       0.8865853759961002  0.2849136510934778  0.1442805564021237 1.0000   
         C         C         1.0       0.860305118200054   0.2641895828369657  0.14805478882086037          1.0000   
         C         C         1.0       0.8532979619716768  0.2469783444577203  0.1703645792797516 1.0000   
         C         C         1.0       0.8715494065407909  0.25017940768762126           0.19063704022736613          1.0000   
         C         C         1.0       0.8965663866073413  0.2733155428771495  0.18841661947769953          1.0000   
         C         C         1.0       0.9033502933369076  0.2895426708616276  0.16592017949084817          1.0000   
         H         H         1.0       0.8428770044165923  0.26281531053349483           0.13864608065190642          1.0000   
         H         H         1.0       0.8328654238272281  0.23171917472055706           0.17379749440050596          1.0000   
         H         H         1.0       0.9120388724752327  0.2793988939719614  0.20387247355145507          1.0000   
         H         H         1.0       0.9232119978513991  0.3067702305764782  0.16485483289807282          1.0000   
         C         C         1.0       0.9058790461094938  0.22703742238471974           0.20607926864685563          1.0000   
         C         C         1.0       0.8858951442534818  0.22701918136533783           0.22697484112632574          1.0000   
         C         C         1.0       0.8861852301624558  0.22031234415824424           0.25493698728822634          1.0000   
         C         C         1.0       0.9064507831346849  0.21718885843993388           0.2628554607964077 1.0000   
         C         C         1.0       0.9291018598248956  0.22237668545779632           0.24299942392920518          1.0000   
         C         C         1.0       0.928788486864711   0.2257682604604132  0.21336114869445688          1.0000   
         C         C         1.0       0.862817300140693   0.2326663123043711  0.21881234936919222          1.0000   
         C         C         1.0       0.8369087208034324  0.20291004305397228           0.2178825879760474 1.0000   
         C         C         1.0       0.8181600275789744  0.19245220671803823           0.24184088891669284          1.0000   
         C         C         1.0       0.7941534779377957  0.16971511278513926           0.23783993059976255          1.0000   
         C         C         1.0       0.7892188640306599  0.1558153143416082  0.2113115549128444 1.0000   
         C         C         1.0       0.808277676293295   0.16485778430336193           0.1869678200518596 1.0000   
         C         C         1.0       0.8329185269657313  0.18752812350993497           0.190949704715009  1.0000   
         C         C         1.0       0.8762891677746231  0.26944725489195437           0.2649167626182832 1.0000   
         C         C         1.0       0.8743668524970096  0.2892417970397462  0.28402995910686113          1.0000   
         C         C         1.0       0.8552816342799479  0.29696574885613175           0.28050339051176276          1.0000   
         C         C         1.0       0.8367744448088884  0.28201330915826917           0.2592127361188924 1.0000   
         C         C         1.0       0.8364810397606974  0.2593341892318062  0.24199355849393983          1.0000   
         C         C         1.0       0.8577214218270807  0.25351269041756064           0.24382359760932176          1.0000   
         C         C         1.0       0.8599123919498929  0.3252326091792649  0.2960493719952529 1.0000   
         C         C         1.0       0.8553345708706246  0.334494468656471   0.3945760459856734 1.0000   
         C         C         1.0       0.8656822203476268  0.3553165109635358  0.3766390087861778 1.0000   
         C         C         1.0       0.8686093977637109  0.3514721308645325  0.3462759579775999 1.0000   
         C         C         1.0       0.8577665112372961  0.3266683053609493  0.3315181899078093 1.0000   
         C         C         1.0       0.8471871196884018  0.3050153863303418  0.3492187388729767 1.0000   
         C         C         1.0       0.8477815093281992  0.3092699244501959  0.38121900176276535          1.0000   
         C         C         1.0       0.834595383515766   0.3299056348560443  0.29487335367127676          1.0000   
         C         C         1.0       0.8403945766264495  0.3534147012834354  0.2840731588502233 1.0000   
         C         C         1.0       0.8199922188170335  0.35870954174663233           0.28161841586308994          1.0000   
         C         C         1.0       0.7924583781316591  0.34035099766773746           0.2877148392757425 1.0000   
         C         C         1.0       0.7873392094839444  0.3172954313631925  0.2986255534729907 1.0000   
         C         C         1.0       0.8073116441385983  0.3112387581963363  0.30108814889010277          1.0000   
         C         C         1.0       0.9130380231958996  0.35789611973009067           0.2903764364234645 1.0000   
         C         C         1.0       0.9357127320447998  0.37084330899344375           0.2734911467960963 1.0000   
         C         C         1.0       0.9363297307161651  0.37173319708736174           0.24372288802880948          1.0000   
         C         C         1.0       0.9122510609314103  0.3588499504121962  0.22954275896563864          1.0000   
         C         C         1.0       0.8887276627815986  0.3451595141900101  0.246954591845163  1.0000   
         C         C         1.0       0.8884465932164752  0.34326102570673994           0.27761909267491364          1.0000   
         H         H         1.0       0.9069694275326416  0.22880221833538683           0.18277225194060123          1.0000   
         H         H         1.0       0.8699591338166874  0.2182563969041737  0.2717230919223602 1.0000   
         H         H         1.0       0.9049681845461874  0.21405234992187966           0.28737547718059225          1.0000   
         H         H         1.0       0.9482275051010813  0.23324335930802018           0.19914418999558506          1.0000   
         H         H         1.0       0.8193211807576471  0.2034017865397602  0.2651035272323907 1.0000   
         H         H         1.0       0.7798639927078265  0.16198304754313173           0.25773218182295227          1.0000   
         H         H         1.0       0.8059979139943264  0.1522071349084689  0.1665926361884099 1.0000   
         H         H         1.0       0.8456572554471842  0.1940795877132239  0.17073645516641475          1.0000   
         H         H         1.0       0.8955719019022084  0.2690429501803506  0.2655294413390801 1.0000   
         H         H         1.0       0.8916000113654412  0.30151836173621427           0.2981810401728706 1.0000   
         H         H         1.0       0.8235849386087236  0.28885836741584003           0.254632233416332  1.0000   
         H         H         1.0       0.8214778284853548  0.24754556729939803           0.22541291422508902          1.0000   
         H         H         1.0       0.8706470052210361  0.3749289309064682  0.3886565130180371 1.0000   
         H         H         1.0       0.878317325574256   0.36918285097097275           0.333882531879079  1.0000   
         H         H         1.0       0.8354538797070037  0.28601960661686116           0.33622280384890146          1.0000   
         H         H         1.0       0.837103138531147   0.2916298049291457  0.39344882745926335          1.0000   
         H         H         1.0       0.8612585837100661  0.3685153957094339  0.2846702071077566 1.0000   
         H         H         1.0       0.8252206935586244  0.3766564369893518  0.2710863132329459 1.0000   
         H         H         1.0       0.7652224305901488  0.3013920240092239  0.2996035160109482 1.0000   
         H         H         1.0       0.8010819326563274  0.2918975268738118  0.30699739625311373          1.0000   
         H         H         1.0       0.9158201769426716  0.36002503841424377           0.31447576154595486          1.0000   
         H         H         1.0       0.9530718006439174  0.3801901481695764  0.28499680170573893          1.0000   
         H         H         1.0       0.9100944390930039  0.35907428321931967           0.20598504868795556          1.0000   
         H         H         1.0       0.870073058310618   0.3366865126215798  0.23690705058606146          1.0000   
         C         C         1.0       0.8940306994018398  0.031116635901490428         0.3944299434564551 1.0000   
         C         C         1.0       0.9180374261933596  0.050693554380966066         0.38377118939747873          1.0000   
         C         C         1.0       0.925828364773678   0.0484359625061731  0.35338551726966255          1.0000   
         C         C         1.0       0.9106152124878095  0.026898410106727152         0.33416594560812907          1.0000   
         C         C         1.0       0.8853515452432096  0.007752201023209272         0.3446644713514491 1.0000   
         C         C         1.0       0.8769071949595375  0.009533101827711898         0.374152154348717  1.0000   
         H         H         1.0       0.931497521332291   0.06683248429314596           0.3993513593982313 1.0000   
         H         H         1.0       0.9443211621393189  0.06499557543173858           0.3478622866593051 1.0000   
         H         H         1.0       0.8715614152623806  0.991205818910178   0.33079063903526956          1.0000   
         H         H         1.0       0.8584132906815071  0.9925874013298559  0.38236512226555674          1.0000   
         C         C         1.0       0.8333567997588655  0.4333265272441518  0.3235664335497783 1.0000   
         C         C         1.0       0.839012309065414   0.44762453795562784           0.2983940895838708 1.0000   
         C         C         1.0       0.8211506626323725  0.4343388839529649  0.27505184608846445          1.0000   
         C         C         1.0       0.798252559221212   0.4104527198178622  0.2784597093440577 1.0000   
         C         C         1.0       0.7930245356830947  0.3967858219990153  0.3028314555657221 1.0000   
         C         C         1.0       0.8111672955190476  0.4086242179509828  0.32456834936330664          1.0000   
         C         C         1.0       0.9205144887279653  0.022083887011904193         0.2985459967759017 1.0000   
         C         C         1.0       0.9511843587443479  0.02876198727255237           0.29580847627684065          1.0000   
         C         C         1.0       0.9665447264650054  0.037650890177582434         0.26978107422369374          1.0000   
         C         C         1.0       0.9905966016715579  0.036159067611974294         0.26145338031824084          1.0000   
         C         C         1.0       0.9993410743662181  0.02700285796103935           0.28129616546989733          1.0000   
         C         C         1.0       0.9859788719056491  0.022346214288601146         0.3102346277401317 1.0000   
         C         C         1.0       0.961340843385074   0.02176822986081045           0.3160525635099857 1.0000   
         C         C         1.0       0.8896538234857354  0.034489961635365426         0.2782572940779389 1.0000   
         C         C         1.0       0.8850127101503267  0.050097487029947346         0.26290241506922063          1.0000   
         C         C         1.0       0.9056628921668495  0.07595781886983582           0.2569073918360287 1.0000   
         C         C         1.0       0.9294620289273886  0.08651598026853377           0.27188142168118995          1.0000   
         C         C         1.0       0.9331471058779398  0.06972657595781491           0.2869330159241279 1.0000   
         C         C         1.0       0.914329506882289   0.04320950907807357           0.2871317639869461 1.0000   
         C         C         1.0       0.9017200916585135  0.09180668097738356           0.23272604749293938          1.0000   
         C         C         1.0       0.9209822825317218  0.043840108003899814         0.15682103306240658          1.0000   
         C         C         1.0       0.8945782381443228  0.03823695805527136           0.16382874556231247          1.0000   
         C         C         1.0       0.8877993675968929  0.05405089576998705           0.18606482356800702          1.0000   
         C         C         1.0       0.9088007612113024  0.07600167586123989           0.2027620934446695 1.0000   
         C         C         1.0       0.9352701616921999  0.08034013522330692           0.1959733399717559 1.0000   
         C         C         1.0       0.9415999440824055  0.0649758407259964  0.1737285172174848 1.0000   
         C         C         1.0       0.9211924266023254  0.123042243449355   0.2335770409257483 1.0000   
         C         C         1.0       0.9247060802974034  0.1389455540038154  0.2610025108057743 1.0000   
         C         C         1.0       0.9420800771391061  0.16605028252091103           0.2615510273209441 1.0000   
         C         C         1.0       0.9507338325482643  0.17870295185844867           0.23564034307297207          1.0000   
         C         C         1.0       0.945308382926228   0.16292391258228003           0.20816706630434761          1.0000   
         C         C         1.0       0.9302573354439828  0.13533345592020463           0.20704220330171721          1.0000   
         C         C         1.0       0.8625533319280067  0.09209773311677111           0.21272369057818427          1.0000   
         C         C         1.0       0.8352697693099989  0.08542410775815629           0.21320033213150005          1.0000   
         C         C         1.0       0.8203875471307269  0.08195506247980495           0.23924334540466707          1.0000   
         C         C         1.0       0.831672542408672   0.08321439213342338           0.26463111495440966          1.0000   
         C         C         1.0       0.8576085324448021  0.08797228119639505           0.2647803205488499 1.0000   
         C         C         1.0       0.8730397141460186  0.09057194959902225           0.23777205869015192          1.0000   
         H         H         1.0       0.8455249202019122  0.442041784663319   0.34402426786598334          1.0000   
         H         H         1.0       0.8250628100726225  0.44379914113682295           0.2537876755802605 1.0000   
         H         H         1.0       0.7842420386242229  0.4017637260924626  0.2611961278781255 1.0000   
         H         H         1.0       0.8085379670635424  0.3994705735111362  0.34532138090618575          1.0000   
         H         H         1.0       0.9603534671789971  0.043201955876128025         0.2517053058942099 1.0000   
         H         H         1.0       0.00044960772520230563        0.04125012237593702          0.23811966409751495          1.0000   
         H         H         1.0       0.9927364051790274  0.01678977936791224           0.3292085399909368 1.0000   
         H         H         1.0       0.949289770633658   0.013971912168377457         0.3367133695674564 1.0000   
         H         H         1.0       0.8720857266274396  0.014483343352606837         0.281978109320212  1.0000   
         H         H         1.0       0.8666346417977854  0.04001448081924564           0.2520395464573671 1.0000   
         H         H         1.0       0.9458989032344888  0.10680868026548285           0.26855977601183467          1.0000   
         H         H         1.0       0.9523063051704265  0.0789637388475794  0.29820841238154716          1.0000   
         H         H         1.0       0.8549609842046156  0.4728848067850322  0.15258361928323427          1.0000   
         H         H         1.0       0.8651860663652954  0.04793391078996103           0.19072153051204718          1.0000   
         H         H         1.0       0.95300176716864    0.09493777774790729           0.2054429890734604 1.0000   
         H         H         1.0       0.9630914695990421  0.07184407546036262           0.1673350197981011 1.0000   
         H         H         1.0       0.9167371191980591  0.12944649820105944           0.28236537651998606          1.0000   
         H         H         1.0       0.9464676107476486  0.17627750923170404           0.2826971150695135 1.0000   
         H         H         1.0       0.9500551796229091  0.17229018236816177           0.1875871422317898 1.0000   
         H         H         1.0       0.9244537744270174  0.12293885822606748           0.1848610298715392 1.0000   
         H         H         1.0       0.8747868991633646  0.09535323328471972           0.19070727592726971          1.0000   
         H         H         1.0       0.8256384537946083  0.08050045452661539           0.19303985207864516          1.0000   
         H         H         1.0       0.8192940621430116  0.07873220903181144           0.2862467907113408 1.0000   
         H         H         1.0       0.8634888189506272  0.08777244988932235           0.2864966577473616 1.0000   
         C         C         1.0       0.9335794362637515  0.46855602450093686           0.13360931908363086          1.0000   
         C         C         1.0       0.9616041495374769  0.4805369961094132  0.12871360545974475          1.0000   
         C         C         1.0       0.9721674596786735  0.46739532786181354           0.10803949127123341          1.0000   
         C         C         1.0       0.9557544289483728  0.44132995821723203           0.09322540233800797          1.0000   
         C         C         1.0       0.9278744974181208  0.4302483219484126  0.09930251860116415          1.0000   
         C         C         1.0       0.9162598951495037  0.4427759457679312  0.12002266811122558          1.0000   
         H         H         1.0       0.9727542696984072  0.5010745832635214  0.13971770729797012          1.0000   
         H         H         1.0       0.9934060436907045  0.4779908241377363  0.10183156947775224          1.0000   
         H         H         1.0       0.9140791528108894  0.41060304956024496           0.08905456237791358          1.0000   
         H         H         1.0       0.8945131575139605  0.433933563344038   0.1252864686572052 1.0000   
         C         C         1.0       0.9528240445861713  0.3888881292998243  0.1060050798443763 1.0000   
         C         C         1.0       0.9537524352166343  0.3941413050181862  0.0750520929595369 1.0000   
         C         C         1.0       0.9447962198666824  0.37178272478024244           0.054103725874197345         1.0000   
         C         C         1.0       0.9323601765447852  0.3465636770212629  0.0629234345316197 1.0000   
         C         C         1.0       0.93162037443134    0.342847817799251   0.09345172467737778          1.0000   
         C         C         1.0       0.9443815994653988  0.36470329782123906           0.11402129885180297          1.0000   
         C         C         1.0       0.9663351822887573  0.42446582328142135           0.06835953095952928          1.0000   
         C         C         1.0       0.9967955468262522  0.431253940545766   0.06469527877525846          1.0000   
         C         C         1.0       0.009261332451936388          0.42738684333251276          0.03618212739391915          1.0000   
         C         C         1.0       0.525334986385944   0.43580009886866133           0.02747550967652567          1.0000   
         C         C         1.0       0.5427490343018628  0.44574701329031063           0.04971916662484285          1.0000   
         C         C         1.0       0.5326100253830007  0.44807431305709833           0.0788396796563697 1.0000   
         C         C         1.0       0.012866738440836079          0.44130232529797037          0.08927975499415862          1.0000   
         C         C         1.0       0.9350697987072691  0.4165788915554813  0.023571992766896505         1.0000   
         C         C         1.0       0.9311928811424515  0.4232878459563382  0.9970143974145559 1.0000   
         C         C         1.0       0.950853637730167   0.44809152329404245           0.9863599311676098 1.0000   
         C         C         1.0       0.9734055163690916  0.46326321434710593           0.0024935780018666698        1.0000   
         C         C         1.0       0.9759024420561544  0.4572474656607237  0.02893553537264172          1.0000   
         C         C         1.0       0.9590251202859528  0.43219631658647983           0.03790625853759483          1.0000   
         C         C         1.0       0.9481921573087702  0.46105265482462376           0.9586873620914759 1.0000   
         C         C         1.0       0.9839091041380398  0.42078672712907716           0.894363722584612  1.0000   
         C         C         1.0       0.9563996786204669  0.41002756451029565           0.8985606263769477 1.0000   
         C         C         1.0       0.9445345801739354  0.421712230384163   0.9189920456711556 1.0000   
         C         C         1.0       0.9609659203203461  0.4483312020057139  0.9327905926268659 1.0000   
         C         C         1.0       0.9887051104168729  0.4593053533931323  0.9269155641928293 1.0000   
         C         C         1.0       7.734843815776493e-05         0.44455415765216566          0.9105248309082846 1.0000   
         C         C         1.0       0.9605861064069274  0.49302183513009634           0.9628957754162847 1.0000   
         C         C         1.0       0.9575945017921625  0.5053366720238607  0.9909281875664888 1.0000   
         C         C         1.0       0.9895511881461683  0.04734219323599026           0.0007263631672307369        1.0000   
         C         C         1.0       0.005317892055136664          0.06086378078599237          0.9767266796934455 1.0000   
         C         C         1.0       0.006107642723670592          0.046583055668090644         0.949416983934951  1.0000   
         C         C         1.0       0.9774752003193918  0.5094281304550238  0.9404551712980743 1.0000   
         C         C         1.0       0.9127080131370615  0.455410333090562   0.9229989056487432 1.0000   
         C         C         1.0       0.8881049767129624  0.45181404085013305           0.918567082618813  1.0000   
         C         C         1.0       0.8676141744626577  0.4472538509333613  0.9413204858734847 1.0000   
         C         C         1.0       0.8712282138011402  0.44246569696844984           0.9689009945517492 1.0000   
         C         C         1.0       0.8966030065678515  0.4482193280038606  0.9755682037711959 1.0000   
         C         C         1.0       0.9178822056450339  0.45436196665611206           0.9525092897902732 1.0000   
         H         H         1.0       0.9616514935743147  0.405745833538026   0.12198383389512377          1.0000   
         H         H         1.0       0.9471716816083612  0.3747888475058014  0.03229710150509829          1.0000   
         H         H         1.0       0.9258040353245968  0.32779935640149677           0.04647316932541072          1.0000   
         H         H         1.0       0.9446482587848573  0.3607595021892972  0.13628203841383874          1.0000   
         H         H         1.0       0.9993585799408693  0.4193048746246337  0.01610909613553768          1.0000   
         H         H         1.0       0.5322496851635723  0.43593936214754786           0.004324888363978374         1.0000   
         H         H         1.0       0.546672407875898   0.45642220141059076           0.09599925154643527          1.0000   
         H         H         1.0       0.0027754210779162847         0.4433459672176535 0.11204878287880453          1.0000   
         H         H         1.0       0.9193850921872531  0.3962809371464665  0.03074836099263495          1.0000   
         H         H         1.0       0.9137948679871037  0.40921534753342    0.9843267362240448 1.0000   
         H         H         1.0       0.9885401123515828  0.48372543441960103           0.9969867642892888 1.0000   
         H         H         1.0       0.9945652574017576  0.4710609657684236  0.03982860159764078          1.0000   
         H         H         1.0       0.9425294083472922  0.39054507708529784           0.887394026374444  1.0000   
         H         H         1.0       0.923096129344805   0.41158015233515327           0.9246870024398903 1.0000   
         H         H         1.0       0.0031145330527806436         0.47779078374913064          0.9385410163632414 1.0000   
         H         H         1.0       0.022326569370707983          0.45177503401790003          0.906717119996021  1.0000   
         H         H         1.0       0.9456326831900452  0.49471922579405325           0.00927743821839977          1.0000   
         H         H         1.0       0.9918014814595325  0.05823834224232114           0.023662668069610114         1.0000   
         H         H         1.0       0.02036321420796594           0.05742384530558397          0.931350188027566  1.0000   
         H         H         1.0       0.9785727327954439  0.5044382568077225  0.9164447247818628 1.0000   
         H         H         1.0       0.928339735035813   0.4641755084132436  0.9050606833117537 1.0000   
         H         H         1.0       0.8848751747425152  0.4524842629441621  0.8964329187615481 1.0000   
         H         H         1.0       0.8550224583811266  0.4373750072831095  0.9881917026012738 1.0000   
         H         H         1.0       0.9009988606777691  0.4478433301517597  0.9970159852093637 1.0000   
         C         C         1.0       0.9185493772411084  0.4819325353446164  0.15130108493254296          1.0000   
         C         C         1.0       0.9298773667162054  0.026424285919353693         0.13444678244232988          1.0000   
         H         H         1.0       0.9428835501122649  0.019529157279989457         0.17323428521625436          1.0000   
         H         H         1.0       0.9022929620288306  0.467900525289924   0.16535267532476774          1.0000   
         H         H         1.0       0.89785842855559    0.4821309430770904  0.11159247103958578          1.0000   
         H         H         1.0       0.9504554920335613  0.036716208688590095         0.12326067130307299          1.0000   
         C         C         1.0       0.9205270483843032  0.31540985417627027           0.10314860459075932          1.0000   
         C         C         1.0       0.8932679811414694  0.30576355687788026           0.12490623429175923          1.0000   
         H         H         1.0       0.9187300396312474  0.2994915466857923  0.08465266333565792          1.0000   
         H         H         1.0       0.9357777612445701  0.3170449668693238  0.11644312923777732          1.0000   
         H         H         1.0       0.8915515305454341  0.32206238040466295           0.13947475359673933          1.0000   
         H         H         1.0       0.8777681411909247  0.2977340312358444  0.10956194920272776          1.0000   
         C         C         1.0       0.7712704688115246  0.3482530191092204  0.282086095275101  1.0000   
         C         C         1.0       0.7683112021238178  0.36936002980951316           0.3062385608923035 1.0000   
         H         H         1.0       0.7739635191386344  0.35238431524215785           0.25880199982333935          1.0000   
         H         H         1.0       0.7502449501256384  0.33023052210508946           0.2835858377093316 1.0000   
         H         H         1.0       0.7662176350016711  0.3641595664166206  0.3289365551384349 1.0000   
         H         H         1.0       0.7496889651639139  0.36788641140868844           0.3028840281099579 1.0000   
         C         C         1.0       0.9541131531512671  0.2248157599204936  0.2546783034586906 1.0000   
         C         C         1.0       0.9661316887649201  0.20829477987433626           0.23395524211316793          1.0000   
         H         H         1.0       0.94888883926814    0.21771481935321643           0.2784098018419567 1.0000   
         H         H         1.0       0.9697070302154471  0.24592424321079434           0.2548645012627033 1.0000   
         H         H         1.0       0.9867978812170886  0.21276551428017382           0.2384546189251676 1.0000   
         H         H         1.0       0.9668355679356467  0.21375008607955875           0.21150202430274306          1.0000   
         C         C         1.0       0.5913294547613677  0.4879534022413103  0.04778083380765995          1.0000   
         C         C         1.0       0.5730953578150224  0.4571062747600687  0.04159508149533041          1.0000   
         H         H         1.0       0.5824142516385173  0.49813757892714994           0.039737481052576754         1.0000   
         H         H         1.0       0.6125371700757942  0.49584115674697965           0.03329858046835207          1.0000   
         H         H         1.0       0.5802141235345214  0.4478244783557536  0.05467257235192162          1.0000   
         H         H         1.0       0.5746551627698542  0.45105952606756367           0.017431235884086682         1.0000   
         C         C         1.0       0.9695700897104423  0.48207872671833085           0.2251447150947426 1.0000   
         C         C         1.0       0.018685927321972384          0.01662970526765636          0.27089155382427327          1.0000   
         H         H         1.0       0.9710048327100422  0.4952654296840147  0.2463098672266605 1.0000   
         H         H         1.0       0.9594772483355929  0.48732073419318694           0.20931559415086673          1.0000   
         H         H         1.0       0.03747375479588544           0.027913277866262964         0.2850797706412694 1.0000   
         H         H         1.0       0.027172017055320463          0.02037695669090883          0.24667287879226069          1.0000   
         C         C         1.0       0.7710287597243709  0.04674197021198602           0.24523293787925352          1.0000   
         C         C         1.0       0.7915915480534618  0.07691394645855969           0.24043842539884433          1.0000   
         H         H         1.0       0.7771208437332737  0.0435118609634356  0.26732160984149955          1.0000   
         H         H         1.0       0.7740284989404621  0.03399927013875131           0.22658148641499817          1.0000   
         H         H         1.0       0.7878012254514989  0.08154785562729353           0.21793465864289752          1.0000   
         H         H         1.0       0.7868205898913336  0.09056669633370201           0.25713499065955053          1.0000   
         C         C         1.0       0.736285500679358   0.1333842128505118  0.21328067171847734          1.0000   
         C         C         1.0       0.7624234005320313  0.12986329864650226           0.20948302246677758          1.0000   
         H         H         1.0       0.7344620186971883  0.1398448042425263  0.19236251465932064          1.0000   
         H         H         1.0       0.7371403967062894  0.1483654508707029  0.23311055069793307          1.0000   
         H         H         1.0       0.762206290952207   0.11849599860122204           0.18718882492146674          1.0000   
         H         H         1.0       0.7602072184333404  0.11571965442636203           0.22517979133844074          1.0000   
         C         C         1.0       0.519918398852642   0.3951172486724668  0.22766821730864698          1.0000   
         C         C         1.0       0.9619220416702308  0.38938616815883187           0.22529855399699142          1.0000   
         H         H         1.0       0.9720163252360112  0.3568032537046807  0.20679029646816374          1.0000   
         H         H         1.0       0.5225068020474126  0.3967259692075161  0.2526044297712141 1.0000   
         H         H         1.0       0.49108032124919304           0.39671681493235095          0.20275550714405793          1.0000   
         H         H         1.0       0.9714217881071946  0.41005625246032384           0.23757623308583645          1.0000   
         C         C         1.0       0.8408085814326465  0.4437581739112768  0.9345041554789016 1.0000   
         C         C         1.0       0.8153493944914358  0.41785961412502554           0.9424057579591456 1.0000   
         H         H         1.0       0.8378265838665756  0.46100368443748296           0.9443878672435458 1.0000   
         H         H         1.0       0.841724437650897   0.4462528102126967  0.9102978645837936 1.0000   
         H         H         1.0       0.8022756104712333  0.4208407135018856  0.9632270072680383 1.0000   
         H         H         1.0       0.8229763037771418  0.4042590357290525  0.9481823127035672 1.0000   
         C         C         1.0       0.9953949324089277  0.4031462339648512  0.8773412664389566 1.0000   
         C         C         1.0       0.9946858816433493  0.38191490680629053           0.8966315829787398 1.0000   
         H         H         1.0       0.9838088502422607  0.3920746576524827  0.8586422334484545 1.0000   
         H         H         1.0       0.01693838775705725           0.41381722813163446          0.867214433275468  1.0000   
         H         H         1.0       0.9737732234677868  0.37265902878491747           0.9077887294396382 1.0000   
         H         H         1.0       0.010799697653532059          0.3931319826555107 0.9111636488593605 1.0000   
         C         C         1.0       0.6140113687558775  0.32093763897648264           0.843440044567926  1.0000   
         C         C         1.0       0.6319446844348499  0.35098679853218795           0.8487219959619158 1.0000   
         H         H         1.0       0.6230865822518019  0.31414060806647726           0.8244650912923772 1.0000   
         H         H         1.0       0.6147130470879711  0.3124535189901059  0.8637593818536632 1.0000   
         H         H         1.0       0.6243993039290295  0.35886442343807184           0.8706795677632828 1.0000   
         H         H         1.0       0.6294774059951415  0.3596667683913986  0.8300157652154502 1.0000   
         C         C         1.0       0.9042712730482836  0.39076037364649496           0.8343412212700733 1.0000   
         C         C         1.0       0.9126497582564119  0.4201777634297724  0.8407083709778099 1.0000   
         H         H         1.0       0.8834415594787691  0.38012422914917116           0.828507538070423  1.0000   
         H         H         1.0       0.9032537662495801  0.38340767267464526           0.8556416095384468 1.0000   
         H         H         1.0       0.9112848410493424  0.4251809129108681  0.8663864899985398 1.0000   
         H         H         1.0       0.9344770837363862  0.43291938121785023           0.8354365985111593 1.0000   
         C         C         1.0       0.004718739588772669          0.10325062219655655          0.9746576360428694 1.0000   
         C         C         1.0       0.02182228898371963           0.09109356374754164          0.9818093283833423 1.0000   
         H         H         1.0       0.016013393953366206          0.1251362238737406 0.9806463168614996 1.0000   
         H         H         1.0       0.9831273955473605  0.09473989482405958           0.9851793040023511 1.0000   
         H         H         1.0       0.04102192394054405           0.09736965611389788          0.9672709972491356 1.0000   
         H         H         1.0       0.02756105220502647           0.09989022726582972          0.005748210795632369         1.0000   
         C         C         1.0       0.9585182815071932  0.17711104594289157           0.7961294260660431 1.0000   
         C         C         1.0       0.9503925406932722  0.1925404601766515  0.7793336566053617 1.0000   
         H         H         1.0       0.9401354140954139  0.1586483344892753  0.8002070262207748 1.0000   
         H         H         1.0       0.9655813175660435  0.18672687382944506           0.8195619312030133 1.0000   
         H         H         1.0       0.9273426279143738  0.18617451414879932           0.7853350028482969 1.0000   
         H         H         1.0       0.9490942578899888  0.18368545230735284           0.7550112992776885 1.0000   
         C         C         1.0       0.5429373970738849  0.48922118771324385           0.8307722155174987 1.0000   
         C         C         1.0       0.9981609234972134  0.47983250546740513           0.8262660173373086 1.0000   
         H         H         1.0       0.5510637362976804  0.5046029702563183  0.8149525070727404 1.0000   
         H         H         1.0       0.5594376637640984  0.49553052425557165           0.8467062984351584 1.0000   
         H         H         1.0       0.9916751455908944  0.46717472269698823           0.8454864629036184 1.0000   
         H         H         1.0       0.9800144680559919  0.46848056573112157           0.8123680972912389 1.0000   
         C         C         1.0       0.644840656955878   0.2535376311346888  0.8221633791024744 1.0000   
         C         C         1.0       0.6713502745004116  0.2530203776291289  0.8134539689312249 1.0000   
         H         H         1.0       0.640978928604199   0.257075446874376   0.8461490559869844 1.0000   
         H         H         1.0       0.6468786734375651  0.2717472484225946  0.8123255452360131 1.0000   
         H         H         1.0       0.6761435534991753  0.24528745210072847           0.789518182283177  1.0000   
         H         H         1.0       0.6726910389501476  0.24075230698695188           0.8294066445741163 1.0000   
         C         C         1.0       0.9118240917807492  0.07983719301928142           0.7855660549945324 1.0000   
         C         C         1.0       0.8812565212077447  0.06189713528595664           0.7966685647042208 1.0000   
         H         H         1.0       0.9160119463226397  0.10043095281177782           0.7872033238988924 1.0000   
         H         H         1.0       0.9151280747939455  0.07402761105233537           0.7607885645230648 1.0000   
         H         H         1.0       0.867509663247074   0.0644480424224127  0.7850854168568174 1.0000   
         H         H         1.0       0.8789058471468433  0.069042003441347   0.8193649805388823 1.0000   
         C         C         1.0       0.8490601967316852  0.33962951365796956           0.428046500868233  1.0000   
         C         C         1.0       0.8711708454356676  0.35384358307694846           0.45078060895851535          1.0000   
         H         H         1.0       0.8375211461772163  0.350320825028168   0.42839340778370266          1.0000   
         H         H         1.0       0.8349319072125054  0.32158744336177303           0.43869650421239087          1.0000   
         H         H         1.0       0.8803425323161995  0.3407005731413877  0.4504630362097736 1.0000   
         H         H         1.0       0.8622983741720098  0.35357174570073113           0.47559350510063014          1.0000   
         C         C         1.0       0.8855917891193837  0.005922187987125908         0.4422378892601257 1.0000   
         C         C         1.0       0.8861225023113615  0.0290406664377904  0.4284316565006223 1.0000   
         H         H         1.0       0.86794573517264    0.9876536330142743  0.43607832211248865          1.0000   
         H         H         1.0       0.8836059853313909  0.011040134350704969         0.46769406771455874          1.0000   
         H         H         1.0       0.9005887948516532  0.04689551762058777           0.4417651451293036 1.0000   
         H         H         1.0       0.8667504267549768  0.028325089160725733         0.4321132631691575 1.0000   
         C         C         1.0       0.5623415198279599  0.9922683628880662  0.3658387106888718 1.0000   
         C         C         1.0       0.589516287802603   0.01832136972344131           0.3605813330585763 1.0000   
         H         H         1.0       0.567799184429766   0.976391593506789   0.3662465947791677 1.0000   
         H         H         1.0       0.5491053666044408  0.9842900726342586  0.3471984267710864 1.0000   
         H         H         1.0       0.6025364859558351  0.023356191381122323         0.37985246942514916          1.0000   
         H         H         1.0       0.5840322511687582  0.03438640187173902           0.3636374692986225 1.0000   
         C         C         1.0       0.8203822107847507  0.39547056022811644           0.6512648949164686 1.0000   
         C         C         1.0       0.8339790730424178  0.41294024025903187           0.6236157783155245 1.0000   
         H         H         1.0       0.8235315806207447  0.37822483374266913           0.64640668747216   1.0000   
         H         H         1.0       0.7977736781413693  0.38768177029678147           0.6544448237114442 1.0000   
         H         H         1.0       0.820951096177156   0.3998862309456314  0.6036584746911604 1.0000   
         H         H         1.0       0.8293817285175654  0.42982267037724237           0.6271935460480728 1.0000   
         C         C         1.0       0.5377461434884911  0.07194354102002973           0.6755152443238934 1.0000   
         C         C         1.0       0.5453325871515393  0.10013237318766896           0.6676715799706524 1.0000   
         H         H         1.0       0.015353845430209123          0.06777004777566312          0.6667793332752946 1.0000   
         H         H         1.0       0.5535976623173415  0.07162911092038751           0.6873585693500802 1.0000   
         H         H         1.0       0.563004208849578   0.10564835109847096           0.651681150741581  1.0000   
         H         H         1.0       0.5288616931276919  0.09870341161469258           0.6559701658977816 1.0000   
         C         C         1.0       0.9729045392365587  0.36486131385635445           0.6156420577815218 1.0000   
         C         C         1.0       0.948730125429441   0.36375878760612035           0.6023797051278271 1.0000   
         H         H         1.0       0.5318091337754436  0.38309251738531425           0.6253586648462437 1.0000   
         H         H         1.0       0.9747624944089549  0.3467661517712385  0.6061940992239991 1.0000   
         H         H         1.0       0.9302623053764074  0.35667665587019143           0.6179504951393487 1.0000   
         H         H         1.0       0.9435200587680894  0.35034852949071743           0.5790504662328976 1.0000   
         C         C         1.0       0.9159330624937366  0.8834574153597561  0.44716696112009846          1.0000   
         C         C         1.0       0.9437554590226547  0.8961420568670501  0.4435995449810723 1.0000   
         C         C         1.0       0.9576860397020855  0.9221817064852146  0.4411622596727955 1.0000   
         C         C         1.0       0.9453678466115183  0.938867136466219   0.4472748074088377 1.0000   
         C         C         1.0       0.9172282373186401  0.9261070824827019  0.4547465116675517 1.0000   
         C         C         1.0       0.9031412519462141  0.898632204632932   0.4534830372715206 1.0000   
         H         H         1.0       0.9551664123965901  0.885154040104923   0.4387930370028421 1.0000   
         H         H         1.0       0.9794737896453197  0.9318514216448427  0.4361913266807273 1.0000   
         H         H         1.0       0.9057777930152962  0.9366527651287072  0.45893590240770094          1.0000   
         H         H         1.0       0.8815522064280904  0.8902001057286256  0.4559662097750148 1.0000   
         C         C         1.0       0.9293552376312763  0.9733913068371738  0.41965342758700197          1.0000   
         C         C         1.0       0.9489644015947566  0.9861607161096317  0.4399142835507128 1.0000   
         C         C         1.0       0.9471006686370929  0.5115035914871714  0.45239333095495654          1.0000   
         C         C         1.0       0.9348494665898136  0.5260030468878462  0.4484625206297841 1.0000   
         C         C         1.0       0.9130844470292997  0.515360187895097   0.431086658944083  1.0000   
         C         C         1.0       0.9054977354824699  0.49104354507561837           0.4144945933368325 1.0000   
         C         C         1.0       0.963474146212639   0.9712354071567502  0.4485928533839908 1.0000   
         C         C         1.0       0.9898799024452768  0.9820402383693932  0.42581760483930226          1.0000   
         C         C         1.0       0.5699170764007572  0.5186563507237146  0.4465822389853204 1.0000   
         C         C         1.0       0.5908005444434961  0.5281513341731661  0.4238924954560785 1.0000   
         C         C         1.0       0.5844048066978028  0.5221077051540842  0.3950990283679247 1.0000   
         C         C         1.0       0.5158088265227023  0.9788987570102088  0.3900262138349083 1.0000   
         C         C         1.0       0.9909812971528619  0.9685683658051819  0.39790419807098004          1.0000   
         C         C         1.0       0.9468343558559336  0.9752646515552789  0.5050131016046515 1.0000   
         C         C         1.0       0.9462958795955109  0.975045118406158   0.5360574440278373 1.0000   
         C         C         1.0       0.9638837998776333  0.9694904290863384  0.546374252508419  1.0000   
         C         C         1.0       0.9863709101870581  0.9712841598362602  0.5261241325238655 1.0000   
         C         C         1.0       0.9870750894171216  0.9723369141494861  0.49574846280400636          1.0000   
         C         C         1.0       0.9675901337395872  0.9751988081411913  0.4845407034749812 1.0000   
         C         C         1.0       0.9619733527833385  0.9650039498852201  0.5814305711311873 1.0000   
         C         C         1.0       0.8770513150067162  0.9354440891894326  0.6186521083095003 1.0000   
         C         C         1.0       0.8978159837715988  0.9544553303903113  0.6361640335682622 1.0000   
         C         C         1.0       0.924606613429092   0.9628863644143248  0.624311868856256  1.0000   
         C         C         1.0       0.9310966064316019  0.9528575891668802  0.5960152185486438 1.0000   
         C         C         1.0       0.9087929971788454  0.9315237377746357  0.5815178020354824 1.0000   
         C         C         1.0       0.8831446914489488  0.9247471011901186  0.5913214887693246 1.0000   
         C         C         1.0       0.9824690161245995  0.9940188245545636  0.5954708759643556 1.0000   
         C         C         1.0       0.5254495064455177  0.010668575928257873         0.6219981087016783 1.0000   
         C         C         1.0       0.5702633281818759  0.5353264090736285  0.6276903211419627 1.0000   
         C         C         1.0       0.5604105096863629  0.5522675518600662  0.6381727256025039 1.0000   
         C         C         1.0       0.9744551140965748  0.5295207055136962  0.623453468610297  1.0000   
         C         C         1.0       0.9749761793906596  0.014282764347780086         0.6008133534961371 1.0000   
         C         C         1.0       0.9712251656704326  0.9385324564438712  0.6143466608446722 1.0000   
         C         C         1.0       0.9673782708860162  0.9149025252533949  0.6234485632729323 1.0000   
         C         C         1.0       0.9621402146946341  0.8928448671195558  0.6011761850661308 1.0000   
         C         C         1.0       0.9603573504787458  0.8958582852007966  0.5725450900268285 1.0000   
         C         C         1.0       0.9620041289312165  0.9200166651826529  0.5657169063181477 1.0000   
         C         C         1.0       0.9677257445558487  0.9410205326601105  0.5870504456817032 1.0000   
         H         H         1.0       0.9245432410629514  0.9543770310998508  0.4064804719114261 1.0000   
         H         H         1.0       0.9620027925067843  0.519408256185898   0.46916936356628747          1.0000   
         H         H         1.0       0.939525507126016   0.5441483796348452  0.46416102952370863          1.0000   
         H         H         1.0       0.8877868793609655  0.48314188014539305           0.402705089267304  1.0000   
         H         H         1.0       0.5766042832692284  0.5269085889821861  0.46870740341850864          1.0000   
         H         H         1.0       0.6122769035186632  0.539704198189068   0.42803136171283407          1.0000   
         H         H         1.0       0.509170208784534   0.9718650345802099  0.36785981254892397          1.0000   
         H         H         1.0       0.9750173548686885  0.948379509571342   0.3909565609113601 1.0000   
         H         H         1.0       0.9305265841428707  0.9777846784298501  0.49821739195194853          1.0000   
         H         H         1.0       0.9304636268670662  0.9757587252618769  0.5523725273879305 1.0000   
         H         H         1.0       0.5173745147792291  0.9667394629887314  0.548724877090556  1.0000   
         H         H         1.0       0.5158099401961531  0.9676796686482791  0.49541000451704786          1.0000   
         H         H         1.0       0.8931402544337458  0.9616926501043791  0.6585548779271483 1.0000   
         H         H         1.0       0.9392231424950791  0.9759952922926006  0.6412044373508854 1.0000   
         H         H         1.0       0.9105499503603113  0.919161503564572   0.5603662529249821 1.0000   
         H         H         1.0       0.8667054623693832  0.9094626476426645  0.5784964629556071 1.0000   
         H         H         1.0       0.5353065140208362  0.9993256611665843  0.6134991582417794 1.0000   
         H         H         1.0       0.5892079214441672  0.5387887561458066  0.6329043799437012 1.0000   
         H         H         1.0       0.9669957147698774  0.5439445661762446  0.6314855689300828 1.0000   
         H         H         1.0       0.9564328964409743  0.011229573121629643         0.5931756356027118 1.0000   
         H         H         1.0       0.9740567645482795  0.9552247024958013  0.6306545702989622 1.0000   
         H         H         1.0       0.9693360833443397  0.916740063236103   0.6465401987567728 1.0000   
         H         H         1.0       0.9522389399861275  0.877563397528876   0.5561229832369976 1.0000   
         H         H         1.0       0.9566521882407321  0.9190409531876479  0.5424326909472341 1.0000   
         C         C         1.0       0.0012353439631447305         0.5972058919130132 0.9507555068442942 1.0000   
         C         C         1.0       0.02159848866526959           0.6087343442702009 0.9288673056319633 1.0000   
         C         C         1.0       0.017421267358637582          0.6023483658302522 0.8988611266510322 1.0000   
         C         C         1.0       0.9914091598002579  0.5857011532787759  0.890495824601892  1.0000   
         C         C         1.0       0.9700564060186015  0.5767115789690461  0.9126372928608886 1.0000   
         C         C         1.0       0.9735929881458514  0.5819078107251977  0.9438043474334202 1.0000   
         H         H         1.0       0.04216305954555488           0.623264034909905  0.936415351542929  1.0000   
         H         H         1.0       0.5408489492663674  0.6120809583980212  0.8893822086614297 1.0000   
         H         H         1.0       0.9482255772055124  0.5633232986036366  0.9067406286857522 1.0000   
         H         H         1.0       0.9555716344949239  0.5712496191046238  0.9591279890455967 1.0000   
         C         C         1.0       0.9510049704092822  0.5919075150388359  0.8562120776818927 1.0000   
         C         C         1.0       0.9617375152375843  0.5743484295795663  0.845284797526733  1.0000   
         C         C         1.0       0.9495493481547523  0.5564643482066137  0.8207495529920495 1.0000   
         C         C         1.0       0.9283335721804176  0.5556951541031341  0.8081183544770092 1.0000   
         C         C         1.0       0.9192734749642073  0.573789722739076   0.8187156409474211 1.0000   
         C         C         1.0       0.9304608133085933  0.5918215866686665  0.8425757394467315 1.0000   
         C         C         1.0       0.9889808739300802  0.5771865902912229  0.8547262200719516 1.0000   
         C         C         1.0       0.9905327347400513  0.5507663001419352  0.8524652395464661 1.0000   
         C         C         1.0       0.015970108350568113          0.5524937250986782 0.8448590396711405 1.0000   
         C         C         1.0       0.5331768568729812  0.5377187357624013  0.8488399081244254 1.0000   
         C         C         1.0       0.02188371806875833           0.019775341503234012         0.8336548178128056 1.0000   
         C         C         1.0       0.9952031786776412  0.014536999515907922         0.838493983030974  1.0000   
         C         C         1.0       0.96877065924932    0.5253423268546448  0.8557746158383812 1.0000   
         C         C         1.0       0.5251607344846376  0.5968799009276091  0.7995498354562873 1.0000   
         C         C         1.0       0.5401626380293044  0.6135701819717785  0.7773579253529191 1.0000   
         C         C         1.0       0.5512781010379206  0.641033809189366   0.7870577954430554 1.0000   
         C         C         1.0       0.5471482537111564  0.6496735222236384  0.8182499860069521 1.0000   
         C         C         1.0       0.017400779409990852          0.6253863822532804 0.8379628768918367 1.0000   
         C         C         1.0       0.008629017982198395          0.5984895197602412 0.8315283534671674 1.0000   
         C         C         1.0       0.5647564178771683  0.6618277035494103  0.7616469212915364 1.0000   
         C         C         1.0       0.5884340595947034  0.6247442803880204  0.6787068899242437 1.0000   
         C         C         1.0       0.5720175530014862  0.6361539904455733  0.6763895471617878 1.0000   
         C         C         1.0       0.5644575626153918  0.6487582543321538  0.702476576199662  1.0000   
         C         C         1.0       0.575608982464471   0.6512420211362231  0.7300477325014587 1.0000   
         C         C         1.0       0.5943481262978575  0.6432297486832838  0.7296177711065496 1.0000   
         C         C         1.0       0.6002117173478962  0.629630928574596   0.7051016115774286 1.0000   
         C         C         1.0       0.5919258804157828  0.6879406431653826  0.7729550421995025 1.0000   
         C         C         1.0       0.6064416348413696  0.6885663979881046  0.7962856325372866 1.0000   
         C         C         1.0       0.6301494665519422  0.7115947760901701  0.8070055098113735 1.0000   
         C         C         1.0       0.6408456704092603  0.734327307744828   0.7931029567562704 1.0000   
         C         C         1.0       0.6281401492937302  0.7331771435812748  0.7684741470819404 1.0000   
         C         C         1.0       0.604183696358829   0.7106464679865427  0.7592365640579125 1.0000   
         C         C         1.0       0.5405982265244585  0.6922915479158359  0.7759910714643008 1.0000   
         C         C         1.0       0.5175026915726146  0.6944193674705749  0.781462178521882  1.0000   
         C         C         1.0       0.9753298008881274  0.6715672251619247  0.7859402850406477 1.0000   
         C         C         1.0       0.9695826869538738  0.6469172095423567  0.7735787337696061 1.0000   
         C         C         1.0       0.9906351513344465  0.6408952744347383  0.7643306692585327 1.0000   
         C         C         1.0       0.5400336624676939  0.668601324222328   0.7626696247641771 1.0000   
         H         H         1.0       0.9619422382378575  0.6088678826855268  0.8740091235807413 1.0000   
         H         H         1.0       0.9567539121718966  0.5425952352648616  0.8087293258067566 1.0000   
         H         H         1.0       0.9206184361477031  0.5401080726635721  0.7881420138888635 1.0000   
         H         H         1.0       0.9259945866700534  0.608009050680634   0.8505041172181446 1.0000   
         H         H         1.0       0.5459022655480131  0.5780308115669738  0.8387985478268806 1.0000   
         H         H         1.0       0.5543341622605193  0.5416543964657209  0.8450986966307027 1.0000   
         H         H         1.0       0.9791494648033439  0.9936373843178558  0.8359201675037425 1.0000   
         H         H         1.0       0.9490665064905627  0.5230394771272575  0.862141861993604  1.0000   
         H         H         1.0       0.003934658494629817          0.5675789792957975 0.7957335683893221 1.0000   
         H         H         1.0       0.5423271524215155  0.6054579107412805  0.7533520270442954 1.0000   
         H         H         1.0       0.5508811602150718  0.6687947248630071  0.8273333021223591 1.0000   
         H         H         1.0       0.011002456271474559          0.6327575227810546 0.8587607415743267 1.0000   
         H         H         1.0       0.5630468053631006  0.6316204228958859  0.6552595724873592 1.0000   
         H         H         1.0       0.548878952495114   0.6535121665937864  0.7017261889076521 1.0000   
         H         H         1.0       0.6055062743424998  0.6471976050970318  0.7494024114236532 1.0000   
         H         H         1.0       0.6132097433117445  0.6224373584797284  0.710099333512265  1.0000   
         H         H         1.0       0.5987189390928015  0.6705243309859052  0.8084329161058119 1.0000   
         H         H         1.0       0.6395587323503069  0.7124854818376084  0.826015905941393  1.0000   
         H         H         1.0       0.6362533588328967  0.7506075508684629  0.7553472003408963 1.0000   
         H         H         1.0       0.5957198358223056  0.7127297939314872  0.7412569324934337 1.0000   
         H         H         1.0       0.5596237665573397  0.708129081730859   0.7847769843329184 1.0000   
         H         H         1.0       0.5191433844208531  0.713377024566553   0.7938396691263089 1.0000   
         H         H         1.0       0.9495284711896044  0.6306903220631757  0.7708913173667948 1.0000   
         H         H         1.0       0.9868279335602762  0.6216458307916902  0.754793327770773  1.0000   
         C         C         1.0       0.9789258477444132  0.865379456998528   0.6540964934236885 1.0000   
         C         C         1.0       0.5176035624153381  0.8950697576450094  0.694415674999891  1.0000   
         C         C         1.0       0.5172383732139966  0.8971577311094174  0.7265518540558196 1.0000   
         C         C         1.0       0.987088503485405   0.8766155099816965  0.7154293334702727 1.0000   
         C         C         1.0       0.9621161995446247  0.8582207837532614  0.7046735040021255 1.0000   
         C         C         1.0       0.9571094445473377  0.8517484261601633  0.6747124593461864 1.0000   
         H         H         1.0       0.5373788621344434  0.9062560042691945  0.6803392180809835 1.0000   
         H         H         1.0       0.5365315653068298  0.9093570197124534  0.7367090791854943 1.0000   
         H         H         1.0       0.9473113663373004  0.8434781108398653  0.7186017556696709 1.0000   
         H         H         1.0       0.9377280665668248  0.8348386771015283  0.6681560236775275 1.0000   
         C         C         1.0       0.9502769788360441  0.8913514692286747  0.7628511011913311 1.0000   
         C         C         1.0       0.9655144234104116  0.881038696519139   0.771984252583559  1.0000   
         C         C         1.0       0.9613388394563506  0.8751166389714026  0.8009406910261623 1.0000   
         C         C         1.0       0.9447955863436617  0.8822104947154779  0.8211560375491287 1.0000   
         C         C         1.0       0.9308010483179445  0.8937287105861417  0.8119830311718127 1.0000   
         C         C         1.0       0.9315193759171932  0.895718759164681   0.7823357201334087 1.0000   
         C         C         1.0       0.9905286223684002  0.8827861450008305  0.750308091236293  1.0000   
         C         C         1.0       0.5087599545738842  0.9127967714118987  0.796246253427799  1.0000   
         C         C         1.0       0.5215500987678783  0.9193917775298946  0.8226599121433665 1.0000   
         C         C         1.0       0.5322562305016675  0.9450260381274266  0.8379170262037146 1.0000   
         C         C         1.0       0.5265452426454573  0.9631477535214671  0.8285717551707554 1.0000   
         C         C         1.0       0.5130029240277     0.9555178469726017  0.8029254842425193 1.0000   
         C         C         1.0       0.012015221890279815          0.9323056676270233 0.7491539435850891 1.0000   
         C         C         1.0       0.9768736198274978  0.8351274928587101  0.7596475602553486 1.0000   
         C         C         1.0       0.9807455053395581  0.8180502958036945  0.7732104077565327 1.0000   
         C         C         1.0       0.5147856263513889  0.8242135120572477  0.7995600800159715 1.0000   
         C         C         1.0       0.5343535052207463  0.8510469233695318  0.7951265218304121 1.0000   
         C         C         1.0       0.5261388330116201  0.868156136022185   0.7889709395993091 1.0000   
         C         C         1.0       0.9979256819494277  0.8608695908648559  0.7558421835721836 1.0000   
         C         C         1.0       0.5184284702938674  0.8074146027349438  0.8215943018902093 1.0000   
         C         C         1.0       0.9956313784549418  0.8633176193023264  0.8791620989261143 1.0000   
         C         C         1.0       0.9740346293588459  0.8404455169911922  0.867712375401879  1.0000   
         C         C         1.0       0.9782189742355806  0.8220331929380764  0.8474011493015812 1.0000   
         C         C         1.0       0.5047775675423365  0.8163747378066724  0.8519465484807502 1.0000   
         C         C         1.0       0.520500729343783   0.8404370334234933  0.8673252020175665 1.0000   
         C         C         1.0       0.5097296316176925  0.854385993037136   0.8872244046824379 1.0000   
         C         C         1.0       0.5484398839064604  0.8124436845428606  0.824595597781232  1.0000   
         C         C         1.0       0.5678727471177053  0.8167601102816795  0.8013337874471187 1.0000   
         C         C         1.0       0.5932539735787052  0.8185442653746994  0.8046582530155435 1.0000   
         C         C         1.0       0.5985255568014897  0.8169638524001742  0.8325565429685584 1.0000   
         C         C         1.0       0.5789709650305509  0.8123734929573038  0.856471491461967  1.0000   
         C         C         1.0       0.5541792980640486  0.8082485611893799  0.851259213544228  1.0000   
         C         C         1.0       0.9720539261058869  0.7621522765004126  0.8243078094578525 1.0000   
         C         C         1.0       0.9584058101766172  0.734764307230362   0.8189279202056224 1.0000   
         C         C         1.0       0.9603142646586682  0.7226272876504857  0.7900053798739745 1.0000   
         C         C         1.0       0.975753140423694   0.7384848921478189  0.767170748005055  1.0000   
         C         C         1.0       0.9896504839789034  0.7656579987815401  0.7727060430067609 1.0000   
         C         C         1.0       0.9882117042173427  0.7788168421303869  0.8010905047895753 1.0000   
         H         H         1.0       0.9518714429163159  0.8944625711286467  0.7388512162927207 1.0000   
         H         H         1.0       0.9740936930081068  0.8682786648939664  0.8084164525797342 1.0000   
         H         H         1.0       0.9405034001596398  0.8757436088038869  0.8444497710619501 1.0000   
         H         H         1.0       0.917783354092026   0.9005657971051045  0.7744956046022733 1.0000   
         H         H         1.0       0.521404632634898   0.9047263047054516  0.8345044856694874 1.0000   
         H         H         1.0       0.5427040855590844  0.950871672280898   0.8584783695217656 1.0000   
         H         H         1.0       0.5102669633600264  0.9706540577733122  0.7951154012078343 1.0000   
         H         H         1.0       0.0002972721167293635         0.9283115775394432 0.7304997950284214 1.0000   
         H         H         1.0       0.9551146712813773  0.8281825768190644  0.7584714134066768 1.0000   
         H         H         1.0       0.9621106873383571  0.8013950874609623  0.7836333871433342 1.0000   
         H         H         1.0       0.5552595555985899  0.8601481278730809  0.8014568478322976 1.0000   
         H         H         1.0       0.5414981666130858  0.889206934750716   0.787987420888772  1.0000   
         H         H         1.0       0.9537566300297758  0.833617192330802   0.8773220317570215 1.0000   
         H         H         1.0       0.9600845529394824  0.8036074503881941  0.8393160732532082 1.0000   
         H         H         1.0       0.5418353817050365  0.8514347741956003  0.8637688984635475 1.0000   
         H         H         1.0       0.5223261314015588  0.8746548748624897  0.8973509659590008 1.0000   
         H         H         1.0       0.5630749626297141  0.8154952585305691  0.7795301110545683 1.0000   
         H         H         1.0       0.6072220838777089  0.8206419497213668  0.7844426470077501 1.0000   
         H         H         1.0       0.5845862536397058  0.8113270955426183  0.8776348310670756 1.0000   
         H         H         1.0       0.5392528001449243  0.804383289584117   0.8709518611393686 1.0000   
         H         H         1.0       0.9728723323046865  0.7723466521468256  0.8465337306284311 1.0000   
         H         H         1.0       0.9491944945452654  0.7238647089888165  0.8395053804435431 1.0000   
         H         H         1.0       0.9789521629182559  0.7282921273298231  0.7451434144293081 1.0000   
         H         H         1.0       0.5125877895506097  0.7806275978991649  0.763701607610353  1.0000   
         C         C         1.0       0.8106882002129321  0.917726372242694   0.9234248158906367 1.0000   
         C         C         1.0       0.8083569028200859  0.8944014848183284  0.9098662932701216 1.0000   
         C         C         1.0       0.7888991188479338  0.879631133571919   0.8887970080244058 1.0000   
         C         C         1.0       0.7734993770527971  0.8889207532599138  0.880912608617889  1.0000   
         C         C         1.0       0.7744346572628868  0.911909193309237   0.8972353256575426 1.0000   
         C         C         1.0       0.7927097990916149  0.9261374904485755  0.9176420263960682 1.0000   
         H         H         1.0       0.8205393934461158  0.8868646990643109  0.9144989399230675 1.0000   
         H         H         1.0       0.7896026613466358  0.8627795194460347  0.8748675584449215 1.0000   
         H         H         1.0       0.7627415078927726  0.9210260525269995  0.8936991392188555 1.0000   
         H         H         1.0       0.7951464300817775  0.9449874838439499  0.9293767472188422 1.0000   
         C         C         1.0       0.7100793942197339  0.8690556493052085  0.8800636985725971 1.0000   
         C         C         1.0       0.7271183672805857  0.8739200996991754  0.8529660266545072 1.0000   
         C         C         1.0       0.7156054378922213  0.8751422914864984  0.8291309450428753 1.0000   
         C         C         1.0       0.688845453773772   0.8698247471209167  0.8293424956808716 1.0000   
         C         C         1.0       0.6722907086568278  0.8617634688665854  0.85594781974293   1.0000   
         C         C         1.0       0.683535979488067   0.8633967764194445  0.8812260594061003 1.0000   
         C         C         1.0       0.755975971079878   0.8746764331146984  0.851291417133404  1.0000   
         C         C         1.0       0.74490959786131    0.8433753750426358  0.8403057363231938 1.0000   
         C         C         1.0       0.7395522317631248  0.835178484054408   0.8099167552107884 1.0000   
         C         C         1.0       0.725671731377671   0.8090358878738899  0.7978549254032634 1.0000   
         C         C         1.0       0.7156815055973466  0.7902743230670297  0.8167873706859542 1.0000   
         C         C         1.0       0.7192232581641824  0.7971172100806119  0.8479189807860774 1.0000   
         C         C         1.0       0.735955913322601   0.8232418158828286  0.8584132049618223 1.0000   
         C         C         1.0       0.7812692192988353  0.9166885609312222  0.8232059723717638 1.0000   
         C         C         1.0       0.8041529336730602  0.9350379308010849  0.808472165058412  1.0000   
         C         C         1.0       0.8246135119651414  0.9289768463793918  0.7948762144742395 1.0000   
         C         C         1.0       0.8198197742687363  0.9040088252803631  0.7990994683270032 1.0000   
         C         C         1.0       0.7979036763407921  0.8867871939196271  0.8149422593963268 1.0000   
         C         C         1.0       0.7797410651362654  0.8935764868950755  0.8289003827940471 1.0000   
         C         C         1.0       0.85354830623082    0.948308996531817   0.780821279469502  1.0000   
         C         C         1.0       0.8388372469942691  0.9154468092842455  0.6858918053562542 1.0000   
         C         C         1.0       0.8224855250588068  0.9239199924007737  0.7017674431280353 1.0000   
         C         C         1.0       0.8289250111222413  0.9356196401550703  0.730944266636431  1.0000   
         C         C         1.0       0.8487663675532201  0.9348720989601528  0.7455571663753037 1.0000   
         C         C         1.0       0.8642336541222222  0.9243334293296601  0.7279844663218475 1.0000   
         C         C         1.0       0.860140314082708   0.9167549112162043  0.6978331002989999 1.0000   
         C         C         1.0       0.8762688678449206  0.9491211541463555  0.7985146377391266 1.0000   
         C         C         1.0       0.9020982920815026  0.9564184391773988  0.784867429096403  1.0000   
         C         C         1.0       0.9215096555453303  0.9541748230927176  0.7969330349827457 1.0000   
         C         C         1.0       0.9163455170527042  0.946633512768296   0.8268425763574092 1.0000   
         C         C         1.0       0.8933487916064977  0.9454892468127956  0.8419556099675194 1.0000   
         C         C         1.0       0.8741952602385508  0.9471737665117058  0.8291679520077052 1.0000   
         C         C         1.0       0.8656782819324081  0.9935576583350157  0.7641216189658492 1.0000   
         C         C         1.0       0.8727705489244175  0.020272513042635554         0.7668388040096519 1.0000   
         C         C         1.0       0.8704975500778949  0.03139282767214491           0.7948995516899421 1.0000   
         C         C         1.0       0.8642325299781489  0.017797877444130084         0.8202350635671548 1.0000   
         C         C         1.0       0.8586596045924481  0.991761857738031   0.8162044451898272 1.0000   
         C         C         1.0       0.8595564171491232  0.9787454916752014  0.7875261104586273 1.0000   
         H         H         1.0       0.7177291882150917  0.8678640343672538  0.8996470466380475 1.0000   
         H         H         1.0       0.7275965216574846  0.8787270472405432  0.8081536559242646 1.0000   
         H         H         1.0       0.682600016188196   0.871368485725643   0.8082168493458604 1.0000   
         H         H         1.0       0.6709637756764818  0.8607759674376808  0.9021194912144946 1.0000   
         H         H         1.0       0.7454367443326619  0.8499930774080384  0.7920953319554568 1.0000   
         H         H         1.0       0.7204055191323293  0.8026986294915882  0.7743401063893365 1.0000   
         H         H         1.0       0.7079536940992276  0.7827892469245598  0.8642945457103898 1.0000   
         H         H         1.0       0.738477858028883   0.827343535983352   0.8833703802529973 1.0000   
         H         H         1.0       0.7679581511475227  0.9235383399640571  0.8348517485517607 1.0000   
         H         H         1.0       0.8063073671777092  0.9532767260447438  0.8034685172788002 1.0000   
         H         H         1.0       0.8352324599092965  0.8983712819817099  0.7924537466276073 1.0000   
         H         H         1.0       0.7951584793997507  0.8673556330133139  0.8179500888277944 1.0000   
         H         H         1.0       0.8062342995424837  0.9241140204178778  0.6939494015740937 1.0000   
         H         H         1.0       0.815308468802494   0.9435296941467023  0.743550826547753  1.0000   
         H         H         1.0       0.8788047698939512  0.9196653696119231  0.7359794936575492 1.0000   
         H         H         1.0       0.8723586970748124  0.9097939717145034  0.6826852384010446 1.0000   
         H         H         1.0       0.9057540222280173  0.9603461288368083  0.7617750405647326 1.0000   
         H         H         1.0       0.9384534737257898  0.953040347103119   0.7823153142744725 1.0000   
         H         H         1.0       0.8853345687284323  0.9366690590464322  0.8638427568175349 1.0000   
         H         H         1.0       0.8557931414834893  0.9435425604363531  0.8434790666473051 1.0000   
         H         H         1.0       0.869546373208921   0.9872418058223008  0.7410178974101195 1.0000   
         H         H         1.0       0.8780136533058144  0.030819201963546483         0.7457848534986592 1.0000   
         H         H         1.0       0.863258207930795   0.02833020747112802           0.8418387575928152 1.0000   
         H         H         1.0       0.8511679615708645  0.9793738177280593  0.8351103250825082 1.0000   
         C         C         1.0       0.5411288348642167  0.8930611320754507  0.13507913503551558          1.0000   
         C         C         1.0       0.550290059708439   0.9197997939963735  0.13566585739288048          1.0000   
         C         C         1.0       0.5527699090575434  0.9348802601537973  0.16305033112072884          1.0000   
         C         C         1.0       0.5509445227210842  0.9250537747561723  0.18975034867740226          1.0000   
         C         C         1.0       0.5496225093182935  0.9011511980071628  0.1876909718625575 1.0000   
         C         C         1.0       0.5421996888593053  0.884090546322394   0.16054537558716095          1.0000   
         H         H         1.0       0.5512890112368497  0.9286745692590114  0.1159389628389307 1.0000   
         H         H         1.0       0.5584853034255934  0.9559772070286154  0.16404235955034283          1.0000   
         H         H         1.0       0.5548772370828557  0.8944581263826198  0.2064318484104836 1.0000   
         H         H         1.0       0.5363091660708033  0.863511613579522   0.16046569972328825          1.0000   
         C         C         1.0       0.5261569228186457  0.9056767360549345  0.2555742694277177 1.0000   
         C         C         1.0       0.5481921955643919  0.9307820569911492  0.25260576724607464          1.0000   
         C         C         1.0       0.5631906707954791  0.9456639654059162  0.27757918480599186          1.0000   
         C         C         1.0       0.5569480705573016  0.9358711317666886  0.3050421091517512 1.0000   
         C         C         1.0       0.538187972344359   0.9085662207132725  0.30546951031047287          1.0000   
         C         C         1.0       0.5221880286566075  0.8950710432945935  0.28171322723293657          1.0000   
         C         C         1.0       0.5554849250511099  0.9437852900242517  0.22150938369054773          1.0000   
         C         C         1.0       0.5368350619646353  0.9573005682893609  0.22701196219644368          1.0000   
         C         C         1.0       0.5439982957204641  0.9802034416208198  0.24561570453052203          1.0000   
         C         C         1.0       0.5326957460232548  0.9966511741739249  0.24473603530483934          1.0000   
         C         C         1.0       0.02177891074147098           0.9732663449902434 0.26010231320248056          1.0000   
         C         C         1.0       0.023595484848469184          0.9636256011523286 0.23039534476164078          1.0000   
         C         C         1.0       0.5131955697489252  0.9477677338555661  0.21183273148770218          1.0000   
         C         C         1.0       0.6063237947930106  0.9584905672035947  0.22359641192291968          1.0000   
         C         C         1.0       0.6480055853997813  0.5400849795771351  0.21431856602184848          1.0000   
         C         C         1.0       0.6481111262415693  0.5642979629055699  0.2202852000168629 1.0000   
         C         C         1.0       0.6254335247689914  0.5650713412338823  0.21262970467805403          1.0000   
         C         C         1.0       0.6026467418402257  0.5421390753172144  0.20214538718762504          1.0000   
         C         C         1.0       0.588075778052069   0.964448560123198   0.2141852876486166 1.0000   
         C         C         1.0       0.6709579369143772  0.5883363809941637  0.23887860282485546          1.0000   
         C         C         1.0       0.6254059396805723  0.5621079116579727  0.32523957673663323          1.0000   
         C         C         1.0       0.6413771858757905  0.5515526309603881  0.3109762291845525 1.0000   
         C         C         1.0       0.6578509951868508  0.5614495762637345  0.28595585560417924          1.0000   
         C         C         1.0       0.6581821096385592  0.5819600609958852  0.27312096407806524          1.0000   
         C         C         1.0       0.6424724168188866  0.5926763343334505  0.28698087947284534          1.0000   
         C         C         1.0       0.6252546681421959  0.5825507480152818  0.31233014337559223          1.0000   
         C         C         1.0       0.677954701897704   0.6178592372098572  0.23161613223445326          1.0000   
         C         C         1.0       0.6753058326780744  0.6245026279439568  0.2037074898604825 1.0000   
         C         C         1.0       0.6865733830212121  0.651332618894499   0.19703469280012184          1.0000   
         C         C         1.0       0.6993003990834934  0.6709359910910422  0.22063141584903118          1.0000   
         C         C         1.0       0.6999286732603005  0.6642319575176094  0.24821144994898595          1.0000   
         C         C         1.0       0.6907060660112289  0.6383311502875765  0.253936727082488  1.0000   
         C         C         1.0       0.7188757634823107  0.5954025866310426  0.25052608232570667          1.0000   
         C         C         1.0       0.740951590297411   0.5916913971232887  0.2411326935573079 1.0000   
         C         C         1.0       0.7457233627079706  0.5842030383329176  0.21190139624913107          1.0000   
         C         C         1.0       0.7290300851677619  0.5800985354852869  0.19033474171305514          1.0000   
         C         C         1.0       0.7072807377102499  0.584087078501372   0.19888529921711742          1.0000   
         C         C         1.0       0.7000904525542889  0.589721236577277   0.2301942816477828 1.0000   
         H         H         1.0       0.510536113703771   0.8939549890972002  0.23877796534402493          1.0000   
         H         H         1.0       0.5802726002883779  0.9665651340601636  0.2748430435419372 1.0000   
         H         H         1.0       0.5702485791109875  0.945784149169684   0.3252260102795863 1.0000   
         H         H         1.0       0.5073694291111436  0.8745468247330495  0.28180876465074134          1.0000   
         H         H         1.0       0.5611724949009433  0.9901606257332362  0.2602227953526657 1.0000   
         H         H         1.0       0.5407161958864583  0.015936892196769747         0.25597561301984084          1.0000   
         H         H         1.0       0.007993532067850584          0.9618770753468265 0.21971600928150378          1.0000   
         H         H         1.0       0.5036897498037699  0.925194285529747   0.20138493344263123          1.0000   
         H         H         1.0       0.6001528263604196  0.9382645766204091  0.22477178548765095          1.0000   
         H         H         1.0       0.6450094269288746  0.9722519620686997  0.23773893173714103          1.0000   
         H         H         1.0       0.6251306509995712  0.5835010082131946  0.219830934096279  1.0000   
         H         H         1.0       0.5843072194374841  0.5426456634267853  0.20031570584920444          1.0000   
         H         H         1.0       0.6416364715544173  0.5366962855699006  0.320172711983982  1.0000   
         H         H         1.0       0.6695937554019283  0.5518052993023753  0.27515403673567074          1.0000   
         H         H         1.0       0.6407835779192351  0.6064539331636085  0.2776020287503042 1.0000   
         H         H         1.0       0.6103628894648707  0.5895289519979684  0.3207131621713119 1.0000   
         H         H         1.0       0.6657634987067337  0.6090214124335359  0.1839101164038759 1.0000   
         H         H         1.0       0.6891479863851936  0.6575268672921825  0.1741807191521921 1.0000   
         H         H         1.0       0.709928002997712   0.6795539606956654  0.2666808997371376 1.0000   
         H         H         1.0       0.6923628688873324  0.6345120198492938  0.2749117244168039 1.0000   
         H         H         1.0       0.7138454395189405  0.6009048138205564  0.2733172219868562 1.0000   
         H         H         1.0       0.7545645134093559  0.5949097255810143  0.25726099071338565          1.0000   
         H         H         1.0       0.734525396751303   0.5776390931683152  0.16743065682476582          1.0000   
         H         H         1.0       0.695788969557988   0.582668102752471   0.18154302927564706          1.0000   
         C         C         1.0       0.8877433885419922  0.7951475942334681  0.15929926698948327          1.0000   
         C         C         1.0       0.8670959773164221  0.7985678875014806  0.17666040294345792          1.0000   
         C         C         1.0       0.8547422822427286  0.7844095875367741  0.2005645074240931 1.0000   
         C         C         1.0       0.8610553143268118  0.7647852827397433  0.2077006162487767 1.0000   
         C         C         1.0       0.8829441320017782  0.7639436049555086  0.1925910251420283 1.0000   
         C         C         1.0       0.8960578489832874  0.7779532336971006  0.167788786611831  1.0000   
         H         H         1.0       0.8620017458367846  0.8141186312215238  0.17341904983044582          1.0000   
         H         H         1.0       0.837510515807579   0.7847015087367016  0.21376178484928413          1.0000   
         H         H         1.0       0.8898353576117135  0.750405843386046   0.198350826323978  1.0000   
         H         H         1.0       0.9109103677511671  0.7746593840078263  0.15451408454708665          1.0000   
         C         C         1.0       0.8478949847250502  0.7028421669244508  0.20788082518126816          1.0000   
         C         C         1.0       0.8441982759053939  0.7184143390909414  0.2341507137740064 1.0000   
         C         C         1.0       0.8391019784179783  0.7091266278117347  0.26217641716552764          1.0000   
         C         C         1.0       0.8377369881248498  0.68523045721755    0.26466814297091107          1.0000   
         C         C         1.0       0.8450407338657733  0.672295098688017   0.23893758005344914          1.0000   
         C         C         1.0       0.8493373720786394  0.6811236803551304  0.2111618148471929 1.0000   
         C         C         1.0       0.8446198232237427  0.7472366025563503  0.23397705172655145          1.0000   
         C         C         1.0       0.8125246490194311  0.7369102547975427  0.23458893540095718          1.0000   
         C         C         1.0       0.7967925448180309  0.7371132204892548  0.26204440931731454          1.0000   
         C         C         1.0       0.7693207982140305  0.7289886464425505  0.2623953552633773 1.0000   
         C         C         1.0       0.756757320365913   0.7218551790445588  0.2361039921210299 1.0000   
         C         C         1.0       0.771931547416948   0.7215778933946743  0.20859444553149048          1.0000   
         C         C         1.0       0.7981710465286773  0.7278406223388553  0.20832799766077825          1.0000   
         C         C         1.0       0.8853521930445823  0.7702105176830308  0.26736879438146144          1.0000   
         C         C         1.0       0.9063248584511078  0.7940827835893781  0.2777335393635977 1.0000   
         C         C         1.0       0.9045540981869835  0.8175158258562331  0.2825304687763986 1.0000   
         C         C         1.0       0.878647748137112   0.8149350003581524  0.2801064359758029 1.0000   
         C         C         1.0       0.8576314682147238  0.7905777812420575  0.2717712959878489 1.0000   
         C         C         1.0       0.8613985949426061  0.7680476631320333  0.261737192433652  1.0000   
         C         C         1.0       0.9283749709017592  0.8451660101612687  0.2954544993613074 1.0000   
         C         C         1.0       0.8947628862116122  0.842773479714961   0.38960024623988926          1.0000   
         C         C         1.0       0.891467573412342   0.8572061476209691  0.3712231371808195 1.0000   
         C         C         1.0       0.9032032049349393  0.859082011594617   0.34144919463235457          1.0000   
         C         C         1.0       0.9157954571747059  0.8449649469886962  0.32977133196629194          1.0000   
         C         C         1.0       0.9196849075226767  0.8304520220967594  0.3484598739680473 1.0000   
         C         C         1.0       0.9090500820792717  0.8295399702872185  0.37844746486919084          1.0000   
         C         C         1.0       0.9330842512381823  0.8687160763164853  0.27725571297227664          1.0000   
         C         C         1.0       0.9425383618370119  0.8959610699095172  0.2891066431030887 1.0000   
         C         C         1.0       0.9454545108568897  0.9151704659983123  0.2725741606063698 1.0000   
         C         C         1.0       0.9367667325558608  0.9071483658773686  0.24286297425665132          1.0000   
         C         C         1.0       0.9313916596229521  0.8822274185387236  0.22966791713635437          1.0000   
         C         C         1.0       0.9293777036208098  0.8638595135339392  0.24667700010728869          1.0000   
         C         C         1.0       0.9778075074977034  0.8647467552842245  0.3145263210663081 1.0000   
         C         C         1.0       0.002748085932658517          0.8657504351866295 0.3141462118222286 1.0000   
         C         C         1.0       0.011201164087869975          0.853262224375798  0.29142142678803457          1.0000   
         C         C         1.0       0.9944363586940038  0.8375319365467943  0.26915822958434216          1.0000   
         C         C         1.0       0.968402268302058   0.836226799118127   0.2689098309614312 1.0000   
         C         C         1.0       0.9595750678641193  0.8487009400201314  0.292999412698944  1.0000   
         H         H         1.0       0.8528109519979972  0.71072995906237    0.1865355780010448 1.0000   
         H         H         1.0       0.8361840500481349  0.719348330203143   0.2828772327200726 1.0000   
         H         H         1.0       0.8368569278498833  0.6780851553921209  0.28514255112344505          1.0000   
         H         H         1.0       0.8527572252127494  0.6692103651846312  0.19044411296776168          1.0000   
         H         H         1.0       0.8053412229296232  0.741411273710743   0.283374544749314  1.0000   
         H         H         1.0       0.7578669291665058  0.73091229861388    0.2843312411250975 1.0000   
         H         H         1.0       0.7621946377105101  0.716679193452723   0.18741809512511357          1.0000   
         H         H         1.0       0.8091653915207648  0.7253034529048012  0.18614081233670182          1.0000   
         H         H         1.0       0.891564607945038   0.7552819250839249  0.2563942096199013 1.0000   
         H         H         1.0       0.9252923795023974  0.7941526301054105  0.2791287908745368 1.0000   
         H         H         1.0       0.8730681060506681  0.8320029590580763  0.28575741957480033          1.0000   
         H         H         1.0       0.8404974782138286  0.790841952530643   0.2656112853132852 1.0000   
         H         H         1.0       0.87894822196677    0.8657627506592322  0.38240530834983044          1.0000   
         H         H         1.0       0.9002478748845022  0.869702305993669   0.3265154205231357 1.0000   
         H         H         1.0       0.9302239729746837  0.8192810383722999  0.339742191995379  1.0000   
         H         H         1.0       0.9111965084501343  0.8155792780342387  0.38999477204859784          1.0000   
         H         H         1.0       0.9490849088315929  0.9024322809602595  0.3105384815545428 1.0000   
         H         H         1.0       0.951678271602269   0.9353451749012035  0.2844809834489121 1.0000   
         H         H         1.0       0.9250604914946082  0.8747768472964865  0.20611538966543458          1.0000   
         H         H         1.0       0.9243611328518657  0.8442643009976685  0.2321497105704565 1.0000   
         H         H         1.0       0.971917551012684   0.8747045273697208  0.33497838239336875          1.0000   
         H         H         1.0       0.016567756973131065          0.8784184312398242 0.3310416970508174 1.0000   
         H         H         1.0       0.00012490778315843443        0.825449512575546  0.2507945902250141 1.0000   
         H         H         1.0       0.9557502362327617  0.8261092689348158  0.24940164397243356          1.0000   
         C         C         1.0       0.8923643342187034  0.5297677184614497  0.3796253051583869 1.0000   
         C         C         1.0       0.9113299411425075  0.5260971924971563  0.3596177531984387 1.0000   
         C         C         1.0       0.9042106221779328  0.5109131786610418  0.33306986970193514          1.0000   
         C         C         1.0       0.876945920003225   0.49533059533314405           0.3280520956479874 1.0000   
         C         C         1.0       0.8577950993449808  0.49885575372279367           0.34837742172813574          1.0000   
         C         C         1.0       0.8653294173228745  0.5159650458914752  0.3738967981624251 1.0000   
         H         H         1.0       0.9324936636989162  0.5366540711386887  0.36385909921527476          1.0000   
         H         H         1.0       0.920042776253979   0.5081514839159963  0.3166391261728095 1.0000   
         H         H         1.0       0.8357055622991496  0.48521898796048435           0.3453081383833217 1.0000   
         H         H         1.0       0.8511657287744147  0.5174731894598168  0.39064483135718264          1.0000   
         C         C         1.0       0.902567499974047   0.9707450976863421  0.2945680070015225 1.0000   
         C         C         1.0       0.9092018989548765  0.9941032465273402  0.2813214453884047 1.0000   
         C         C         1.0       0.9102545580811702  0.9918833728177068  0.24962063504526938          1.0000   
         C         C         1.0       0.9072944537665675  0.9686365098128953  0.23247636158443616          1.0000   
         C         C         1.0       0.9027574415016808  0.9466785601309394  0.24563744357018544          1.0000   
         C         C         1.0       0.8991764151269583  0.947663514469197   0.27791918476632   1.0000   
         C         C         1.0       0.8658759876152597  0.4774418301423879  0.2969304982320634 1.0000   
         C         C         1.0       0.8866830106282305  0.468814722271233   0.279984089852869  1.0000   
         C         C         1.0       0.8916069267210311  0.46766532161367663           0.2473347100242164 1.0000   
         C         C         1.0       0.9098661056057952  0.460677798900486   0.23282366188812204          1.0000   
         C         C         1.0       0.9251350166915376  0.45411321424115225           0.24838667377878476          1.0000   
         C         C         1.0       0.918178060207323   0.45144740791286353           0.279593948993164  1.0000   
         C         C         1.0       0.898350224497607   0.4578463152343942  0.29440992539010985          1.0000   
         C         C         1.0       0.8392603403779098  0.49589338035980834           0.27325541419224175          1.0000   
         C         C         1.0       0.8385094905625345  0.5110808294278854  0.2544076970857146 1.0000   
         C         C         1.0       0.8609600912048256  0.5321462985226181  0.24248175184359227          1.0000   
         C         C         1.0       0.8858020103426318  0.5390239957405996  0.252593033407612  1.0000   
         C         C         1.0       0.8874349904511459  0.5225991179565471  0.2702606593788736 1.0000   
         C         C         1.0       0.8643645356505519  0.4992358492865845  0.27952692945421276          1.0000   
         C         C         1.0       0.8575832590797705  0.5463954982020615  0.21627822636081792          1.0000   
         C         C         1.0       0.8939027835138427  0.5077879590873237  0.15052486778401825          1.0000   
         C         C         1.0       0.8665937861187679  0.4941244007558068  0.15815907580980385          1.0000   
         C         C         1.0       0.8551981064839067  0.506956597753007   0.1777406983530364 1.0000   
         C         C         1.0       0.869561448728071   0.5336367213689656  0.18897808760829146          1.0000   
         C         C         1.0       0.8976174946940426  0.546402708923655   0.18152896826214268          1.0000   
         C         C         1.0       0.9091236120765822  0.5340938890575849  0.16008838650209006          1.0000   
         C         C         1.0       0.871186819948468   0.5774862675688068  0.22185654377659675          1.0000   
         C         C         1.0       0.8721663856346888  0.5892692682484328  0.25209564611473   1.0000   
         C         C         1.0       0.8746471871755378  0.6143847722125974  0.2572964136131262 1.0000   
         C         C         1.0       0.8792497503756638  0.6289950389463695  0.23445952995795047          1.0000   
         C         C         1.0       0.882859109342157   0.6197420555844189  0.20490518976330224          1.0000   
         C         C         1.0       0.8783629648234028  0.5943359014332334  0.19904024277895188          1.0000   
         C         C         1.0       0.8188206389181587  0.5366191105680186  0.18266566230399647          1.0000   
         C         C         1.0       0.7955510087208105  0.5366301870680215  0.17832618844542683          1.0000   
         C         C         1.0       0.7824284910606154  0.5427298248903395  0.20299568055163736          1.0000   
         C         C         1.0       0.7887578712329485  0.545492925354968   0.2321700415968504 1.0000   
         C         C         1.0       0.8104120671353853  0.5431350367623846  0.2364816022508599 1.0000   
         C         C         1.0       0.8273324907001929  0.5403470609342114  0.2118151826698123 1.0000   
         H         H         1.0       0.9054649358265133  0.972768926044738   0.3178820136543103 1.0000   
         H         H         1.0       0.9184255288084757  0.00886967082701906           0.23778796818188708          1.0000   
         H         H         1.0       0.911943884108398   0.9693293141192696  0.2083355838092951 1.0000   
         H         H         1.0       0.8943480828954792  0.931958033464171   0.2909816852451714 1.0000   
         H         H         1.0       0.8790970645128255  0.46768317375364865           0.23151349909994265          1.0000   
         H         H         1.0       0.9118727255644633  0.457958613104106   0.20754232505783923          1.0000   
         H         H         1.0       0.9276712882135096  0.4443493012399312  0.2927210567389677 1.0000   
         H         H         1.0       0.8927012613207427  0.45313742585269456           0.31639371508463704          1.0000   
         H         H         1.0       0.8192228171427293  0.4796872130359001  0.27896908398118225          1.0000   
         H         H         1.0       0.8188760568365084  0.5061368631013723  0.24697097283881167          1.0000   
         H         H         1.0       0.9042972104204268  0.5552616749680798  0.2433669298434066 1.0000   
         H         H         1.0       0.9068801512668228  0.5256463865168455  0.2744197127791817 1.0000   
         H         H         1.0       0.8800835494465298  0.0243811353105039  0.14749063926289332          1.0000   
         H         H         1.0       0.8352561478025041  0.4958565181996964  0.1856564099801908 1.0000   
         H         H         1.0       0.911219306425554   0.5670026121149397  0.1922353219386641 1.0000   
         H         H         1.0       0.9302821563916348  0.5459393206711153  0.15145256312949298          1.0000   
         H         H         1.0       0.8674820512374664  0.5772925524347476  0.27194048949247157          1.0000   
         H         H         1.0       0.8738108568001081  0.623482502783521   0.280286002946858  1.0000   
         H         H         1.0       0.8878074025681055  0.631263679667646   0.18607264032650328          1.0000   
         H         H         1.0       0.8788157490905336  0.5850491659316253  0.17529039257406653          1.0000   
         H         H         1.0       0.8304690347272702  0.53285368702991    0.16343600787858167          1.0000   
         H         H         1.0       0.7903018054923682  0.5346455189078742  0.15539073406125667          1.0000   
         H         H         1.0       0.7768723965883952  0.5494985576171781  0.2521686732899484 1.0000   
         H         H         1.0       0.8165705258269829  0.5470988162895033  0.2608163573458056 1.0000   
         C         C         1.0       0.9367773004373372  0.9875332472129865  0.13689838395308296          1.0000   
         C         C         1.0       0.9632267330948564  0.9934415158295062  0.1318747723962339 1.0000   
         C         C         1.0       0.970469239544125   0.9764646889167978  0.11267632185992073          1.0000   
         C         C         1.0       0.9518172059460005  0.9522980739282715  0.10031196050889085          1.0000   
         C         C         1.0       0.9244679687049986  0.9465701327398706  0.10727544142564464          1.0000   
         C         C         1.0       0.916579911137805   0.9640315999149182  0.12177707819327079          1.0000   
         H         H         1.0       0.9796393357419627  0.010561299539482594         0.14276778649860497          1.0000   
         H         H         1.0       0.9907089725650188  0.9794987860629452  0.11590388326845756          1.0000   
         H         H         1.0       0.9098798516738772  0.9288062760178701  0.0947995275006876 1.0000   
         H         H         1.0       0.896227726958937   0.9611432105248908  0.12138361861829733          1.0000   
         C         C         1.0       0.9255576306867705  0.89462515396429    0.11878784535616502          1.0000   
         C         C         1.0       0.9385093539790915  0.9010170208098126  0.08975900088124207          1.0000   
         C         C         1.0       0.9345627214219289  0.8798170819052318  0.06776926324307486          1.0000   
         C         C         1.0       0.9183964878801057  0.8533390732987699  0.07422216337823925          1.0000   
         C         C         1.0       0.907004396218869   0.8478852653392128  0.10297077133186777          1.0000   
         C         C         1.0       0.9094372062304092  0.86830889200315    0.12429308153333549          1.0000   
         C         C         1.0       0.9592874703765798  0.9313198902194876  0.08131763258619991          1.0000   
         C         C         1.0       0.9873578128091662  0.9323248689608578  0.0850339701162284 1.0000   
         C         C         1.0       0.0028382040821059995         0.929049743736406  0.06083428212445363          1.0000   
         C         C         1.0       0.48026849298115004           0.8868502068656635 0.08319473763711088          1.0000   
         C         C         1.0       0.48452713375872636           0.8841268734389123 0.11086594639936614          1.0000   
         C         C         1.0       0.47319195829782235           0.8928480468854088 0.1354845260156656 1.0000   
         C         C         1.0       0.9977130051249018  0.9376982939291211  0.11229780320638412          1.0000   
         C         C         1.0       0.9356778936140655  0.9250174498093666  0.03030156045028703          1.0000   
         C         C         1.0       0.9350909498446809  0.9357621578826664  0.004769635980752085         1.0000   
         C         C         1.0       0.9573186772554485  0.9597892528669356  0.9958420570416373 1.0000   
         C         C         1.0       0.9795562230010164  0.9708961551374102  0.011372145868805417         1.0000   
         C         C         1.0       0.979442653574494   0.961693201457307   0.037824770834793686         1.0000   
         C         C         1.0       0.9571680325956327  0.9379364973037255  0.04781304511282565          1.0000   
         C         C         1.0       0.9584894192880963  0.9738359645719901  0.9667299712829097 1.0000   
         C         C         1.0       0.9858033302966273  0.9261562838997629  0.9012736104457606 1.0000   
         C         C         1.0       0.9578601473078321  0.9166880935043815  0.9096744164229649 1.0000   
         C         C         1.0       0.9497729785543045  0.9332423506559286  0.9265591318812225 1.0000   
         C         C         1.0       0.9679534261311384  0.9572812987014685  0.9402792426323829 1.0000   
         C         C         1.0       0.9955919332598909  0.9652064554190251  0.9331275611200075 1.0000   
         C         C         1.0       0.0036168211722844568         0.9502194791887147 0.9130615198543112 1.0000   
         C         C         1.0       0.975849305162217   0.005020157428459182         0.9701474965577336 1.0000   
         C         C         1.0       0.9743896844648557  0.020224905061203113         0.9975865149687817 1.0000   
         C         C         1.0       0.9725204846895747  0.5323246666750867  0.9978987544574879 1.0000   
         C         C         1.0       0.9929664033748243  0.5474780872369588  0.9772317868194181 1.0000   
         C         C         1.0       0.994829960148389   0.5369396367372951  0.9475769558480017 1.0000   
         C         C         1.0       0.992609919143811   0.02060841798936286           0.9455171625587593 1.0000   
         C         C         1.0       0.9273626345409844  0.9774387653624457  0.9319993768935003 1.0000   
         C         C         1.0       0.9026316050280978  0.9735480392360664  0.9246329984625045 1.0000   
         C         C         1.0       0.8832983261974364  0.9718860322312652  0.9479930921793133 1.0000   
         C         C         1.0       0.8882323580659021  0.9709871454075433  0.9767225192733447 1.0000   
         C         C         1.0       0.9112337634626605  0.971018012672188   0.9826332274101274 1.0000   
         C         C         1.0       0.9314566254458326  0.9734530622405018  0.9596105158972963 1.0000   
         H         H         1.0       0.9272102649131704  0.9103319444422419  0.13692113335276562          1.0000   
         H         H         1.0       0.9436258815803432  0.8819606990336537  0.04582500141929712          1.0000   
         H         H         1.0       0.9159314680277896  0.8364172096867046  0.057638580203394255         1.0000   
         H         H         1.0       0.8983765898410615  0.8642079336469392  0.14542415342683387          1.0000   
         H         H         1.0       0.99710795831127    0.9247832968368763  0.03778627015736441          1.0000   
         H         H         1.0       0.4894542331623754  0.8797282197471922  0.06291259297781508          1.0000   
         H         H         1.0       0.47534330384801454           0.8900026618908565 0.15766792685950656          1.0000   
         H         H         1.0       0.9887766951053688  0.9415513850391225  0.1334429537902633 1.0000   
         H         H         1.0       0.9174642661215895  0.9070720470651168  0.03582572401024885          1.0000   
         H         H         1.0       0.9180748570463135  0.9243060383425614  0.9901239084428634 1.0000   
         H         H         1.0       0.9982751960065723  0.9867781636679677  0.003528497877648196         1.0000   
         H         H         1.0       0.9978040930838818  0.9730902304147727  0.05079642213303657          1.0000   
         H         H         1.0       0.94282663241064    0.898073048078143   0.9013872004696195 1.0000   
         H         H         1.0       0.928962909952521   0.9251982586756993  0.9350401737904063 1.0000   
         H         H         1.0       0.010573890191636792          0.9841209358349804 0.9435727044907275 1.0000   
         H         H         1.0       0.025074112499250623          0.9582666905517785 0.9040352099750043 1.0000   
         H         H         1.0       0.962426947198076   0.010973714340180685         0.01675941887378074          1.0000   
         H         H         1.0       0.9718776060278441  0.5418736912464842  0.019931086272550053         1.0000   
         H         H         1.0       0.008492260467961588          0.5474837653460124 0.9304297791157814 1.0000   
         H         H         1.0       0.993715806667647   0.010136303692804605         0.9232833567897201 1.0000   
         H         H         1.0       0.9438162838274353  0.9806728830774302  0.9147811291416242 1.0000   
         H         H         1.0       0.900836708521895   0.9750290027145612  0.9015904243954989 1.0000   
         H         H         1.0       0.8741893723050975  0.9701167575587728  0.9955862313326975 1.0000   
         H         H         1.0       0.9114740689986469  0.9662184912363263  0.003440208545835155         1.0000   
         C         C         1.0       0.9305055792462935  0.008105737713244965         0.1540894810158265 1.0000   
         C         C         1.0       0.9087068898745103  0.4944402788359521  0.13109684299226854          1.0000   
         H         H         1.0       0.9313636534281021  0.4967453852682885  0.1696365607783763 1.0000   
         H         H         1.0       0.9100770686902695  0.9977123586151802  0.1650976263569126 1.0000   
         H         H         1.0       0.915669412751263   0.0166590540043956  0.11689238586138523          1.0000   
         H         H         1.0       0.9255685705999714  0.5105448425114834  0.11934612450915502          1.0000   
         C         C         1.0       0.8911198648799529  0.8195245735724223  0.11265329043260706          1.0000   
         C         C         1.0       0.9054950791152792  0.8153991272029181  0.13637750117209288          1.0000   
         H         H         1.0       0.8689131799192018  0.8132324525115724  0.12083111842773361          1.0000   
         H         H         1.0       0.8901583753486276  0.8057641323544756  0.0914288107638771 1.0000   
         H         H         1.0       0.9222055089013725  0.8131260481587842  0.12464428769340538          1.0000   
         H         H         1.0       0.9170234657882528  0.8342968064678966  0.1508641118225278 1.0000   
         C         C         1.0       0.9353140353681838  0.9270477967107007  0.22395221311546415          1.0000   
         C         C         1.0       0.9070351995727743  0.9250720688061117  0.22565707422604683          1.0000   
         H         H         1.0       0.9509177622545274  0.9469375881693619  0.231885880248823  1.0000   
         H         H         1.0       0.9418454475948859  0.9240162014012571  0.19961051766329904          1.0000   
         H         H         1.0       0.8910096254773656  0.9055501101997674  0.23221925871375476          1.0000   
         H         H         1.0       0.9013904916168475  0.9240799484705311  0.2026471640057663 1.0000   
         C         C         1.0       0.8468644960710139  0.6477200521515963  0.24128116964524626          1.0000   
         C         C         1.0       0.8760297260712528  0.6533681959397495  0.24231862826118283          1.0000   
         H         H         1.0       0.8391437189877032  0.6336261382227019  0.22005092202210766          1.0000   
         H         H         1.0       0.8329481839984876  0.6347209147139926  0.2580503504674244 1.0000   
         H         H         1.0       0.8841263134013445  0.6639384230698236  0.2642759273909131 1.0000   
         H         H         1.0       0.8887077897626969  0.6674422370790376  0.22572514572315802          1.0000   
         C         C         1.0       0.5273459418174752  0.875265227310842   0.10695947048766533          1.0000   
         C         C         1.0       0.49587928696475536           0.864608109049274  0.11219634468017102          1.0000   
         H         H         1.0       0.5398817640043099  0.8868744196861457  0.08628839127980799          1.0000   
         H         H         1.0       0.5316643408857822  0.8585310133558535  0.10225281406610116          1.0000   
         H         H         1.0       0.48973110777411827           0.857092568787008  0.1335663888821885 1.0000   
         H         H         1.0       0.4858586398990509  0.8469834831278027  0.09587447916044627          1.0000   
         C         C         1.0       0.004426826083964386          0.9858295738687409 0.27042810344998086          1.0000   
         C         C         1.0       0.9485572292568248  0.4520834467793016  0.23061596071671406          1.0000   
         H         H         1.0       0.9886373056232438  0.9779634391108253  0.2532328709981266 1.0000   
         H         H         1.0       0.9927792309886739  0.9796936205019366  0.29135206005304165          1.0000   
         H         H         1.0       0.9405053980677311  0.4361024168902092  0.21182242187982336          1.0000   
         H         H         1.0       0.9592820344280836  0.44548778502561204           0.24335922120583886          1.0000   
         C         C         1.0       0.7689872895295811  0.5776561928302586  0.20311003911559225          1.0000   
         C         C         1.0       0.7589493822163652  0.5475663896656234  0.19831704555056784          1.0000   
         H         H         1.0       0.7795472168435915  0.5846088548466603  0.18094310595948962          1.0000   
         H         H         1.0       0.7868104792394568  0.5900629228361869  0.21844385346148404          1.0000   
         H         H         1.0       0.7421249220073599  0.5366452026323352  0.21560147600345989          1.0000   
         H         H         1.0       0.7518522096222289  0.5393545934772461  0.17477397394966399          1.0000   
         C         C         1.0       0.71026093616782    0.7004965841769796  0.21448165460322477          1.0000   
         C         C         1.0       0.7300600632006913  0.7227858895374013  0.23683835092492117          1.0000   
         H         H         1.0       0.7172915791008682  0.7032508677545922  0.19030383660080447          1.0000   
         H         H         1.0       0.6902141467979054  0.7020974634864364  0.21961898362519977          1.0000   
         H         H         1.0       0.7221895300427196  0.7246294128979731  0.2611286346875288 1.0000   
         H         H         1.0       0.7357538055260393  0.7421349462899323  0.22841903067026278          1.0000   
         C         C         1.0       0.5342008028322204  0.8976644902523605  0.33473793570948446          1.0000   
         C         C         1.0       0.03635268038109385           0.8506832403398268 0.29430273307039156          1.0000   
         H         H         1.0       0.0473839787380228  0.8364112604125511  0.24701166136388134          1.0000   
         H         H         1.0       0.5520608709784119  0.9057666114590666  0.34659197731204866          1.0000   
         H         H         1.0       0.5211898680128798  0.9209973719636837  0.36926106000438536          1.0000   
         H         H         1.0       0.027810626249307857          0.8309569469105019 0.3020793572818026 1.0000   
         C         C         1.0       0.8543772601551767  0.9654856300022387  0.9392882914547624 1.0000   
         C         C         1.0       0.8322586081005577  0.9364386720000124  0.9458168380868142 1.0000   
         H         H         1.0       0.8509713436270581  0.9816194352759833  0.9528406392002295 1.0000   
         H         H         1.0       0.8542626109695692  0.9677943969234152  0.9149175868918676 1.0000   
         H         H         1.0       0.8216235672277994  0.9377596061590086  0.9697027804525219 1.0000   
         H         H         1.0       0.8417592726396347  0.9245908756153324  0.9484611519426706 1.0000   
         C         C         1.0       0.9950331585696747  0.907042950794055   0.8826584029096171 1.0000   
         C         C         1.0       0.9897860911745726  0.8838227359785945  0.8993354812023644 1.0000   
         H         H         1.0       0.987302855190388   0.8993287573828938  0.8595475435866088 1.0000   
         H         H         1.0       0.016558984413165723          0.9173227807250023 0.8722090275708906 1.0000   
         H         H         1.0       0.9693750539162334  0.8745799032083693  0.909007426821255  1.0000   
         H         H         1.0       0.0037237573550026326         0.8928546238511786 0.9171216444235477 1.0000   
         C         C         1.0       0.6275011720537468  0.8245438599854134  0.8395671582263003 1.0000   
         C         C         1.0       0.6424473226825433  0.853454612834377   0.8557985492395551 1.0000   
         H         H         1.0       0.6380456983290403  0.8226243592726955  0.81610991952998   1.0000   
         H         H         1.0       0.6259946162999391  0.8083373342477747  0.8527631138612626 1.0000   
         H         H         1.0       0.6318207940923413  0.8515169577118726  0.8783844523255172 1.0000   
         H         H         1.0       0.6403192115635863  0.8673163398564899  0.8437635427258678 1.0000   
         C         C         1.0       0.9148477095884332  0.9041244697366179  0.8344355364106465 1.0000   
         C         C         1.0       0.9304206119214875  0.9347419297652022  0.8389428452034601 1.0000   
         H         H         1.0       0.8943758631512049  0.8949424144961324  0.8254387439026076 1.0000   
         H         H         1.0       0.9131363976444443  0.8971345524560272  0.8566966922577574 1.0000   
         H         H         1.0       0.9312920856273408  0.9411507102751855  0.8634057823466098 1.0000   
         H         H         1.0       0.9529382016983036  0.942605027330069   0.8308285068606922 1.0000   
         C         C         1.0       0.008055474585694666          0.5978461171978825 0.98199995230329   1.0000   
         C         C         1.0       0.015002953383446371          0.575601652230594  0.9859704090597837 1.0000   
         H         H         1.0       0.02460371011124085           0.618164607172897  0.986307457935324  1.0000   
         H         H         1.0       0.9901761748368191  0.5954252517314248  0.9985979282017051 1.0000   
         H         H         1.0       0.03554842041228623           0.5808794763170845 0.9743345879921043 1.0000   
         H         H         1.0       0.016312578450922155          0.577424581120866  0.010352406624598354         1.0000   
         C         C         1.0       0.9536948528347671  0.6777413344450725  0.8036086931694546 1.0000   
         C         C         1.0       0.9443921422388807  0.69135628729565    0.784912822274541  1.0000   
         H         H         1.0       0.9366523892445682  0.659899444563972   0.8102120971674259 1.0000   
         H         H         1.0       0.9599353043647133  0.6895088571304946  0.8263492742825663 1.0000   
         H         H         1.0       0.9224519435496813  0.6837557717962408  0.7907479341748467 1.0000   
         H         H         1.0       0.947016588805633   0.6844952505164656  0.7602177591700576 1.0000   
         C         C         1.0       0.5308177608882598  0.9887236916137356  0.8469835575095989 1.0000   
         C         C         1.0       0.029405228225360736          0.99727968282909   0.8315389812926819 1.0000   
         H         H         1.0       0.5412962489179769  0.004638073779536178         0.831442879962984  1.0000   
         H         H         1.0       0.5470604314934788  0.9946698029865235  0.8631359454608025 1.0000   
         H         H         1.0       0.037615667833369004          0.9991840844510284 0.8535075559820312 1.0000   
         H         H         1.0       0.009354555265916442          0.9781296220701835 0.8316051823186306 1.0000   
         C         C         1.0       0.6670314616265073  0.7608325707799424  0.802396905110008  1.0000   
         C         C         1.0       0.6946252009695764  0.7618018175428455  0.8059741094922787 1.0000   
         H         H         1.0       0.6597152353437152  0.7727531685911205  0.8186625621560919 1.0000   
         H         H         1.0       0.6720892821381387  0.7712315813050293  0.782719549712969  1.0000   
         H         H         1.0       0.7013849651676318  0.7520582557528935  0.7870032131630128 1.0000   
         H         H         1.0       0.689151111045558   0.7478024783827953  0.8241239579223879 1.0000   
         C         C         1.0       0.8961011326171312  0.5727897030620895  0.8025365000730827 1.0000   
         C         C         1.0       0.866102625753783   0.5535531051204519  0.809478871557113  1.0000   
         H         H         1.0       0.8981103707192205  0.5933516017108547  0.8078782273372446 1.0000   
         H         H         1.0       0.9023517732408916  0.5713257427583622  0.7784629705814073 1.0000   
         H         H         1.0       0.8549878722476119  0.5576752253926219  0.7938486924625263 1.0000   
         H         H         1.0       0.8567328356021139  0.5588674540259049  0.8305462761770556 1.0000   
         C         C         1.0       0.8787353606857268  0.8383541043909959  0.42223846848059776          1.0000   
         C         C         1.0       0.8979503489220555  0.8528449618492718  0.44790811886665954          1.0000   
         H         H         1.0       0.8616229585735793  0.8429264165652685  0.4217626757895484 1.0000   
         H         H         1.0       0.8659520933515888  0.8151363211711599  0.4237455687114049 1.0000   
         H         H         1.0       0.9110377514426771  0.8440692806269552  0.45038025108260155          1.0000   
         H         H         1.0       0.8860574521296761  0.8489392107635862  0.47019023822994527          1.0000   
         C         C         1.0       0.8966417024308027  0.5301375456445454  0.43633785442432715          1.0000   
         C         C         1.0       0.9013683925657316  0.5467460145731838  0.4109221974703908 1.0000   
         H         H         1.0       0.8733552510349931  0.5156050974756139  0.4382846345427737 1.0000   
         H         H         1.0       0.9003923281729544  0.544212619863241   0.45672571109427695          1.0000   
         H         H         1.0       0.9219070569502046  0.5649191487726936  0.4092170651441793 1.0000   
         H         H         1.0       0.8859248670678685  0.5530974591279884  0.4178485142924509 1.0000   
         C         C         1.0       0.6069069866429595  0.5314182766492365  0.36926902004730766          1.0000   
         C         C         1.0       0.6070714259252659  0.5521542814779538  0.35279008801007455          1.0000   
         H         H         1.0       0.6274686122152834  0.5380511061990799  0.37747396472182276          1.0000   
         H         H         1.0       0.6022343993054949  0.5138073607695692  0.353681630528013  1.0000   
         H         H         1.0       0.6110704840511287  0.5689343400731252  0.3691895185745717 1.0000   
         H         H         1.0       0.5868151670071162  0.5466984167831626  0.3460989698668755 1.0000   
         C         C         1.0       0.8344406869793662  0.9045891531521464  0.6513589650525703 1.0000   
         C         C         1.0       0.8478637898048083  0.927021139779156   0.6305112905235558 1.0000   
         H         H         1.0       0.8413109525277515  0.8893584891699471  0.6443217870707547 1.0000   
         H         H         1.0       0.811881191933414   0.892766161748833   0.6492074073904996 1.0000   
         H         H         1.0       0.8349553304597257  0.9223424762130098  0.6114794917722539 1.0000   
         H         H         1.0       0.8476243354128906  0.9454507019429162  0.6435537383945182 1.0000   
         C         C         1.0       0.5723867530879775  0.5746771972044993  0.6641874712785462 1.0000   
         C         C         1.0       0.5901277383119541  0.6033369375663175  0.6535679122684528 1.0000   
         H         H         1.0       0.006229546544097797          0.5583141203428779 0.6737781446510723 1.0000   
         H         H         1.0       0.5847457895674602  0.5711833664081057  0.679217809057261  1.0000   
         H         H         1.0       0.6111102389368339  0.6058178273275209  0.6480651550245343 1.0000   
         H         H         1.0       0.5820327757352829  0.6041093105559316  0.6322080690136069 1.0000   
         C         C         1.0       0.9770876862410005  0.8619673763092528  0.6195487516074633 1.0000   
         C         C         1.0       0.9545783461339298  0.8657932416850701  0.6110769854188143 1.0000   
         H         H         1.0       0.5155391287558253  0.887294058510371   0.6359383146157597 1.0000   
         H         H         1.0       0.9739708280098089  0.8414156700762451  0.6136724493619072 1.0000   
         H         H         1.0       0.9397798286146546  0.8620634476968779  0.6304581436984096 1.0000   
         H         H         1.0       0.9450460859308778  0.8494243729921478  0.5924985703258367 1.0000

