data_0

_chemical_formula_sum                   'C1600 H1280'
_cell_length_a                          44.62093590505965
_cell_length_b                          49.043184135803344
_cell_length_c                          35.56889951523426
_cell_angle_alpha                       102.35242747790737
_cell_angle_beta                        79.48924180352113
_cell_angle_gamma                       126.11050574528298
_space_group_name_H-M_alt               'P 1'
_space_group_IT_number                  1
loop_
  _space_group_symop_operation_xyz
         'x, y, z' 
loop_
  _atom_site_type_symbol
  _atom_site_label
  _atom_site_symmetry_multiplicity
  _atom_site_fract_x
  _atom_site_fract_y
  _atom_site_fract_z
  _atom_site_occupancy
         C         C         1.0       0.39029459693525137           0.44062006969399414          0.5073242086187135 1.0000   
         C         C         1.0       0.42719755476128146           0.4580217351279163 0.5064866636096107 1.0000   
         C         C         1.0       0.44957412356522547           0.4914481747584464 0.5237866155119995 1.0000   
         C         C         1.0       0.43267140049451397           0.5075656132960982 0.5432149468682004 1.0000   
         C         C         1.0       0.39316439529535246           0.48779034815361344          0.5458166088386227 1.0000   
         C         C         1.0       0.37334522781149115           0.4547605503600773 0.5267228418453574 1.0000   
         H         H         1.0       0.44032621563395424           0.44565896999026094          0.4975212196397004 1.0000   
         H         H         1.0       0.4797647590363342  0.5032679100008476  0.523000140407223  1.0000   
         H         H         1.0       0.3790981048617969  0.49993031458241716           0.5611464374766875 1.0000   
         H         H         1.0       0.34324425838693373           0.44147601530395325          0.5263843039244385 1.0000   
         C         C         1.0       0.4271559048504138  0.564202126152791   0.5287751505411188 1.0000   
         C         C         1.0       0.44164261375700664           0.56719954025279   0.5616978676934168 1.0000   
         C         C         1.0       0.6969229426014547  0.329038362954057   0.5893029929533874 1.0000   
         C         C         1.0       0.6789644365627219  0.3427540410103198  0.586919283273743  1.0000   
         C         C         1.0       0.6445285171664692  0.3238426153182121  0.5708104348744905 1.0000   
         C         C         1.0       0.6297810187149039  0.29039744992169864           0.5537674295199748 1.0000   
         C         C         1.0       0.4567580138382814  0.5452817345607415  0.5661885188515089 1.0000   
         C         C         1.0       0.5006294840961135  0.5704868701612611  0.5552531762820134 1.0000   
         C         C         1.0       0.32057367443389617           0.21047093073712866          0.5724049484546053 1.0000   
         C         C         1.0       0.3277586815597774  0.2081870311323825  0.5327398631695301 1.0000   
         C         C         1.0       0.29914246930138116           0.18503315981447013          0.5099027031726515 1.0000   
         C         C         1.0       0.22321408891622033           0.5279711808110346 0.4744870348536008 1.0000   
         C         C         1.0       0.5152108291305958  0.5661545073363116  0.5182272530052998 1.0000   
         C         C         1.0       0.4244253233513979  0.5348277890434725  0.6345194716286466 1.0000   
         C         C         1.0       0.42525299286425666           0.5348224651713667 0.6729973609411083 1.0000   
         C         C         1.0       0.45237735859773304           0.5345853524175971 0.6873510136979297 1.0000   
         C         C         1.0       0.4762994804800111  0.531129236860574   0.6593033576452146 1.0000   
         C         C         1.0       0.4746137405124067  0.5302274993513083  0.6212050077419595 1.0000   
         C         C         1.0       0.45236161774642814           0.5372202771858844 0.6085678885899121 1.0000   
         C         C         1.0       0.45993203262126825           0.5390762379837444 0.7320283890218462 1.0000   
         C         C         1.0       0.4024949526892777  0.5882648440569707  0.7926285384702995 1.0000   
         C         C         1.0       0.44170780506441215           0.6050989147732077 0.7946514759476633 1.0000   
         C         C         1.0       0.459184038494049   0.589523363724991   0.7785893224378738 1.0000   
         C         C         1.0       0.4399952957191088  0.5555908915167503  0.7593931030200057 1.0000   
         C         C         1.0       0.40071017150722704           0.5382161802681845 0.7610566877876269 1.0000   
         C         C         1.0       0.3836485286476765  0.5550277520561656  0.7768838898599033 1.0000   
         C         C         1.0       0.504401657165815   0.5621206724884137  0.7375636097697594 1.0000   
         C         C         1.0       0.2871065628048094  0.5741739107771537  0.7245183870081358 1.0000   
         C         C         1.0       0.41061759897364714           0.30086942500630787          0.8166271189149739 1.0000   
         C         C         1.0       0.38976900786436763           0.30761719680677213          0.8467307792026505 1.0000   
         C         C         1.0       0.7339698035272845  0.3503724129778745  0.8152471401218361 1.0000   
         C         C         1.0       0.5261138939854684  0.5925586345939002  0.7203872977138599 1.0000   
         C         C         1.0       0.4382290596944695  0.5028049485866257  0.7880150755336464 1.0000   
         C         C         1.0       0.4283860705741949  0.4727404545610266  0.7995144564529059 1.0000   
         C         C         1.0       0.421174548494904   0.4450210036787337  0.7717181776503754 1.0000   
         C         C         1.0       0.4244646812643981  0.44776235568658823           0.7342538272111069 1.0000   
         C         C         1.0       0.4333979306481557  0.4762032681701405  0.723681336892805  1.0000   
         C         C         1.0       0.44214358366697376           0.5046051501175869 0.7490179475519428 1.0000   
         H         H         1.0       0.42617304586046967           0.5447797205764883 0.5064868174384125 1.0000   
         H         H         1.0       0.7232464020474341  0.3460872773410871  0.603778203836686  1.0000   
         H         H         1.0       0.6917708223631346  0.3705641266190999  0.5976980778091011 1.0000   
         H         H         1.0       0.6025120358522259  0.27262446982329236           0.543921359254366  1.0000   
         H         H         1.0       0.3439832579832364  0.23236148581982258           0.5899532638856407 1.0000   
         H         H         1.0       0.3555045095208062  0.2259086580517331  0.5185954196275107 1.0000   
         H         H         1.0       0.21649190277049316           0.5200770127445893 0.4448055693947662 1.0000   
         H         H         1.0       0.4967098112191418  0.5510277302067461  0.49493790714692987          1.0000   
         H         H         1.0       0.4057458656096678  0.5373843020686971  0.6251798338131955 1.0000   
         H         H         1.0       0.40411496859344215           0.5364978740268284 0.6907133242233112 1.0000   
         H         H         1.0       0.2584085970674408  0.5137224630387888  0.6480536055613273 1.0000   
         H         H         1.0       0.23424693937628038           0.5092056347552211 0.586785464293906  1.0000   
         H         H         1.0       0.4554031269763087  0.6299351707168064  0.8009656709820936 1.0000   
         H         H         1.0       0.48850393206762865           0.6064190170762054 0.7789251493885749 1.0000   
         H         H         1.0       0.38430704018887474           0.5111643435976512 0.7484541112065614 1.0000   
         H         H         1.0       0.35500389331776305           0.5392815485838984 0.7720723199098095 1.0000   
         H         H         1.0       0.2965037328749681  0.5588474431518445  0.7093877159744135 1.0000   
         H         H         1.0       0.4410946380688935  0.31805929111535275           0.8148994598638513 1.0000   
         H         H         1.0       0.7249228238665009  0.3661122585370648  0.8300451674674394 1.0000   
         H         H         1.0       0.5134544399243305  0.5975645568764841  0.7018238939058157 1.0000   
         H         H         1.0       0.44797594964943427           0.5243629724868413 0.8114427415515864 1.0000   
         H         H         1.0       0.42667018472098    0.46989748286645683           0.828486246517806  1.0000   
         H         H         1.0       0.42517716609340844           0.430315301366113  0.7123947979409853 1.0000   
         H         H         1.0       0.4365963534668308  0.47609023256515787           0.6933896656062531 1.0000   
         C         C         1.0       0.6986522241576939  0.2464427346751679  0.1735967315720166 1.0000   
         C         C         1.0       0.7233253736574139  0.2720478830457807  0.15180286756120687          1.0000   
         C         C         1.0       0.711190458038112   0.2764167101055798  0.12126797135448841          1.0000   
         C         C         1.0       0.6738781385596487  0.2522318397496725  0.11129020545507151          1.0000   
         C         C         1.0       0.6482661050009892  0.2264162939084562  0.13443995054824787          1.0000   
         C         C         1.0       0.6619731334400131  0.22381445626544458           0.16449601889791698          1.0000   
         H         H         1.0       0.7495439975803075  0.2915992884932966  0.1617354866577907 1.0000   
         H         H         1.0       0.25294233750207923           0.18374201785126582          0.10325836266175248          1.0000   
         H         H         1.0       0.6211108919968612  0.20702434259358415           0.124763883973807  1.0000   
         H         H         1.0       0.6418051744366483  0.20421982133118488           0.18133284500648594          1.0000   
         C         C         1.0       0.6074262115945591  0.25199594978163875           0.10945054019895584          1.0000   
         C         C         1.0       0.6201908607666673  0.24032184461347347           0.07546297791444623          1.0000   
         C         C         1.0       0.5990830513935081  0.22619372354024617           0.04385237409924758          1.0000   
         C         C         1.0       0.5691942377273781  0.22741235159782966           0.04265921756654856          1.0000   
         C         C         1.0       0.5576904112624651  0.2401811347521624  0.07683336552410114          1.0000   
         C         C         1.0       0.578514961994792   0.2539462364105576  0.10889389899113677          1.0000   
         C         C         1.0       0.661298549402215   0.25040367552870796           0.07159435562737304          1.0000   
         C         C         1.0       0.6714253120039584  0.22501620628695007           0.04594484557601941          1.0000   
         C         C         1.0       0.7078243971832364  0.23625589584752818           0.03342957420905224          1.0000   
         C         C         1.0       0.21471708856889665           0.11425681069936112          0.0021303829330545643        1.0000   
         C         C         1.0       0.6619136312698426  0.7123496672859803  0.9433497539907488 1.0000   
         C         C         1.0       0.643452083335853   0.7193576228043885  0.9754363439894433 1.0000   
         C         C         1.0       0.6461940369704217  0.19055054512790762           0.04371807696064556          1.0000   
         C         C         1.0       0.22839933629932385           0.21384221199550243          0.024669338357165005         1.0000   
         C         C         1.0       0.2552278358028108  0.2466574087126209  0.016876026495129315         1.0000   
         C         C         1.0       0.2673867361494299  0.27487480330539904           0.04646846455081932          1.0000   
         C         C         1.0       0.2587315497558648  0.26741949501049145           0.08300587605312315          1.0000   
         C         C         1.0       0.6882416635694739  0.3156693060894686  0.08155907323981171          1.0000   
         C         C         1.0       0.6809847854271863  0.28698613955237146           0.057500835614919144         1.0000   
         C         C         1.0       0.2795812865375682  0.3107583570705289  0.035600799129898775         1.0000   
         C         C         1.0       0.3548169008435578  0.3444108008903121  0.929151662782956  1.0000   
         C         C         1.0       0.32827987291785193           0.3512416147768784 0.9397600436125065 1.0000   
         C         C         1.0       0.30344393807928677           0.34078203238053273          0.9721276820240785 1.0000   
         C         C         1.0       0.3049240870525387  0.32225864457415065           0.9949412894632306 1.0000   
         C         C         1.0       0.332779219057799   0.31689468832363404           0.9855569194067624 1.0000   
         C         C         1.0       0.35800517473910864           0.3273602722511935 0.9545120918611467 1.0000   
         C         C         1.0       0.30367640968227494           0.3460347843223163 0.06282473648592224          1.0000   
         C         C         1.0       0.32868787184598214           0.35166923439526904          0.0851845411627965 1.0000   
         C         C         1.0       0.3496319750363684  0.38304758424124624           0.10819824336082617          1.0000   
         C         C         1.0       0.3461152286075643  0.40925578892164344           0.10806764697889171          1.0000   
         C         C         1.0       0.31888293385352384           0.4020106286162557 0.08596853576609198          1.0000   
         C         C         1.0       0.29917250074691565           0.3720548996023715 0.0631719413612124 1.0000   
         C         C         1.0       0.21863636334971925           0.29966928354021866          0.0721162009158518 1.0000   
         C         C         1.0       0.1815296052645256  0.28338496341296204           0.07592390553598904          1.0000   
         C         C         1.0       0.6031461023829765  0.3379607679556173  0.0004844941570523176        1.0000   
         C         C         1.0       0.6252982874316336  0.332831203331782   0.9692272550030928 1.0000   
         C         C         1.0       0.6615923040032247  0.34640138389300096           0.9739348926282205 1.0000   
         C         C         1.0       0.23796809095613386           0.29947655921781363          0.036257334968781585         1.0000   
         H         H         1.0       0.6214442183861264  0.26132469425936034           0.13590331976235448          1.0000   
         H         H         1.0       0.6066572428906241  0.21545618095285582           0.018321854747909372         1.0000   
         H         H         1.0       0.5561560058030898  0.21833940864396867           0.017226041945273884         1.0000   
         H         H         1.0       0.566038898967363   0.261754268862219   0.1336373174671739 1.0000   
         H         H         1.0       0.24538986632120074           0.16746579113078797          0.02363650703509168          1.0000   
         H         H         1.0       0.24012568700899037           0.11714587825100266          0.9884613167599435 1.0000   
         H         H         1.0       0.6276621167283638  0.7002941502790925  0.9961331531599094 1.0000   
         H         H         1.0       0.618295834607516   0.1817229525251288  0.056154944078233626         1.0000   
         H         H         1.0       0.6873823121784993  0.26886791693088513           0.9976851097618537 1.0000   
         H         H         1.0       0.2611075672109893  0.24951338642480728           0.9872600559988478 1.0000   
         H         H         1.0       0.263072418584328   0.28355861215645023           0.11063224023597495          1.0000   
         H         H         1.0       0.6814702094319157  0.3138550681858747  0.1135787870713072 1.0000   
         H         H         1.0       0.3267565659521707  0.36532836702437604           0.9230013445566826 1.0000   
         H         H         1.0       0.2858009371162978  0.34914723223596    0.9756463411062484 1.0000   
         H         H         1.0       0.333323197182174   0.30112193259004494           0.0015056124961243533        1.0000   
         H         H         1.0       0.3776445135327039  0.3213493596697837  0.9461110970920711 1.0000   
         H         H         1.0       0.33538254115791666           0.3326019299068665 0.08339361595070094          1.0000   
         H         H         1.0       0.3726634014506935  0.3887662229530225  0.12245677207807382          1.0000   
         H         H         1.0       0.3149425658561434  0.4198011982993342  0.08434029835773393          1.0000   
         H         H         1.0       0.2791610653321489  0.36845090905083133           0.04385111250196183          1.0000   
         H         H         1.0       0.23296939223864854           0.311651867575554  0.09811851891625012          1.0000   
         H         H         1.0       0.17030599365046806           0.2886114820197757 0.10455081889654094          1.0000   
         H         H         1.0       0.6144461473067288  0.3192044218889814  0.9410011497940619 1.0000   
         H         H         1.0       0.6793043647346197  0.3435138172535059  0.9511991746913537 1.0000   
         C         C         1.0       0.4791457183569073  0.44321754681079073           0.8098746666818812 1.0000   
         C         C         1.0       0.3176526889918192  0.4991835855946375  0.8629531802310947 1.0000   
         C         C         1.0       0.30700872553899483           0.5086892708373381 0.8985578934020898 1.0000   
         C         C         1.0       0.5286329955762561  0.4914921020542438  0.8663920924530584 1.0000   
         C         C         1.0       0.4935625402671763  0.4627219150017032  0.8757778309695636 1.0000   
         C         C         1.0       0.4687304107137837  0.44104820793307686           0.8486017267017212 1.0000   
         H         H         1.0       0.34596823636181423           0.5172386661052726 0.8538111427216118 1.0000   
         H         H         1.0       0.3251676644891911  0.5326558508200399  0.917055339629435  1.0000   
         H         H         1.0       0.4821518662366526  0.4639858906306607  0.9046571126746671 1.0000   
         H         H         1.0       0.44189166888113407           0.4210106373074485 0.8571049557219808 1.0000   
         C         C         1.0       0.5092042185090718  0.5319073759864532  0.9326712215968663 1.0000   
         C         C         1.0       0.5384316279747281  0.5294082472257061  0.9370836788050765 1.0000   
         C         C         1.0       0.5554647327998209  0.5431376115358223  0.9714247307695619 1.0000   
         C         C         1.0       0.5499529091473697  0.5643329487382356  0.9982133950753801 1.0000   
         C         C         1.0       0.522989995663403   0.568572314981773   0.992174570779361  1.0000   
         C         C         1.0       0.502846617022703   0.5522347186654851  0.9589493632435271 1.0000   
         C         C         1.0       0.5553027491369095  0.5176695119512612  0.8987620699899778 1.0000   
         C         C         1.0       0.2726100913073119  0.5406866577859226  0.9592270546134513 1.0000   
         C         C         1.0       0.2683935888583204  0.5543714752162966  0.9978762897392722 1.0000   
         C         C         1.0       0.2699562398382487  0.5842118529544634  0.005816584774024358         1.0000   
         C         C         1.0       0.2791540510089167  0.6018041409970614  0.9751626175243931 1.0000   
         C         C         1.0       0.28777036172728804           0.5914488645700976 0.9389447841115237 1.0000   
         C         C         1.0       0.5768204759489437  0.5668981194847661  0.8643428946444374 1.0000   
         C         C         1.0       0.5573540258766292  0.47686637141020055           0.9341193978740177 1.0000   
         C         C         1.0       0.5764786914603143  0.46763822651707637           0.9462324742433967 1.0000   
         C         C         1.0       0.2339785981229498  0.45036294170613134           0.047811220065995474         1.0000   
         C         C         1.0       0.2654673306341766  0.4823155650232421  0.044931041238147396         1.0000   
         C         C         1.0       0.27607165142810725           0.4968623277073141 0.011902532387537024         1.0000   
         C         C         1.0       0.5710342016715207  0.4981447072499737  0.9062764239210878 1.0000   
         C         C         1.0       0.2107818455867181  0.4359093579794157  0.08560026431637557          1.0000   
         C         C         1.0       0.6635577940928673  0.5743228760384126  0.021600742710027543         1.0000   
         C         C         1.0       0.6349950835976472  0.543606437778594   0.03429642027968849          1.0000   
         C         C         1.0       0.6297509153545923  0.5135388718684234  0.015549701994133747         1.0000   
         C         C         1.0       0.18926625400358665           0.4539675255773666 0.09070030279665775          1.0000   
         C         C         1.0       0.20730029352999116           0.4871889705828018 0.10942851845957335          1.0000   
         C         C         1.0       0.1934350836797195  0.5061959405386115  0.11278190940048738          1.0000   
         C         C         1.0       0.2294459155144257  0.4427421338498637  0.12346197523144542          1.0000   
         C         C         1.0       0.26686581218454314           0.45661573711901265          0.12426023217660598          1.0000   
         C         C         1.0       0.284328953737278   0.473050203828211   0.15844133746937783          1.0000   
         C         C         1.0       0.26475453401276905           0.4734322008545978 0.19211198725015133          1.0000   
         C         C         1.0       0.2279995582932281  0.45585709656146034           0.19149905417811408          1.0000   
         C         C         1.0       0.2094415751606561  0.4381328920184441  0.15846857156750316          1.0000   
         C         C         1.0       0.6174420574653335  0.4410058642231439  0.007615011252084525         1.0000   
         C         C         1.0       0.5947030488316631  0.40990967629019903           0.020962729870818153         1.0000   
         C         C         1.0       0.5739750698000894  0.3813148639601313  0.9969228889078894 1.0000   
         C         C         1.0       0.576070738238952   0.3833900732476261  0.9580104810775905 1.0000   
         C         C         1.0       0.5957246225564108  0.4149437337908624  0.9456739461773984 1.0000   
         C         C         1.0       0.6164235789490643  0.44386677182522016           0.9704816696570947 1.0000   
         H         H         1.0       0.4996177189089762  0.5266494878783365  0.9051182150461761 1.0000   
         H         H         1.0       0.5790955917101274  0.5414617516254129  0.9738698209282032 1.0000   
         H         H         1.0       0.567060569373573   0.5816376221727757  0.023107827474239118         1.0000   
         H         H         1.0       0.48073192408686655           0.5532028386756187 0.9522571929140076 1.0000   
         H         H         1.0       0.2553349104690643  0.5412481801228487  0.022619060911966082         1.0000   
         H         H         1.0       0.26098717446181735           0.5925249033284505 0.03414495233934689          1.0000   
         H         H         1.0       0.29498829689775113           0.6047976131602799 0.91392573684281   1.0000   
         H         H         1.0       0.5520015093322557  0.55119784935634    0.8477289809238198 1.0000   
         H         H         1.0       0.5317843529453248  0.47041183694654376           0.951087815096313  1.0000   
         H         H         1.0       0.5659193446402347  0.4550902898498119  0.9724605840530697 1.0000   
         H         H         1.0       0.280100819198556   0.4959630543008849  0.07007064672227914          1.0000   
         H         H         1.0       0.2999540692618768  0.5217785202369277  0.012289160404634458         1.0000   
         H         H         1.0       0.6193755689989905  0.5440139753330165  0.06056411850616339          1.0000   
         H         H         1.0       0.605866956628794   0.4903250766390986  0.026231857054780594         1.0000   
         H         H         1.0       0.23199333629672364           0.4977148676755163 0.12349642769996705          1.0000   
         H         H         1.0       0.21107083758207779           0.5328800418401468 0.12651520749707523          1.0000   
         H         H         1.0       0.28293745168165324           0.4548191624590977 0.0973560883662632 1.0000   
         H         H         1.0       0.31417127407455675           0.48923548988104437          0.15620855026196012          1.0000   
         H         H         1.0       0.2123259916476214  0.4585198941630708  0.21657693840969539          1.0000   
         H         H         1.0       0.18075050856905941           0.42752261516211587          0.16197868531966786          1.0000   
         H         H         1.0       0.634429285005466   0.46235122156197733           0.02678829294627816          1.0000   
         H         H         1.0       0.5898046248292713  0.4072460675443035  0.05186394487484969          1.0000   
         H         H         1.0       0.5590372609822784  0.36001139183882086           0.9378443504944317 1.0000   
         H         H         1.0       0.23355232021913663           0.3926386149589027 0.04893466804344726          1.0000   
         C         C         1.0       0.5003006060278042  0.697128718062611   0.15174022428393386          1.0000   
         C         C         1.0       0.503631654855801   0.6722185618056804  0.1324777158588193 1.0000   
         C         C         1.0       0.4718232367336474  0.6411383884373434  0.12144385904943578          1.0000   
         C         C         1.0       0.4364789532876446  0.6349646285833467  0.13134983071612938          1.0000   
         C         C         1.0       0.4352733565720898  0.663007754085906   0.1465462107475186 1.0000   
         C         C         1.0       0.46645226459954997           0.6927655174728073 0.16029369838422602          1.0000   
         H         H         1.0       0.5317073607110935  0.6783610111725119  0.1280105058556893 1.0000   
         H         H         1.0       0.47586151436657914           0.6230092098572297 0.10295922702322713          1.0000   
         H         H         1.0       0.40937548391372447           0.660560073029838  0.15074208436141046          1.0000   
         H         H         1.0       0.4617416115749569  0.7117828713093216  0.17723723454960472          1.0000   
         C         C         1.0       0.3753717467674437  0.5922646721863006  0.1923375571411523 1.0000   
         C         C         1.0       0.3678185175661984  0.5879831598633024  0.15455964179943904          1.0000   
         C         C         1.0       0.3308108012366704  0.5701662087453505  0.1463202664832961 1.0000   
         C         C         1.0       0.30212251086488684           0.5536338369998148 0.17413074315171606          1.0000   
         C         C         1.0       0.31162594825101964           0.555774595660185  0.21049765636792772          1.0000   
         C         C         1.0       0.3467982912280883  0.5763433163248308  0.2203611163717043 1.0000   
         C         C         1.0       0.39919649213582364           0.5964200244376824 0.12153614436694737          1.0000   
         C         C         1.0       0.40057174630913445           0.5636804579937924 0.11952689970064001          1.0000   
         C         C         1.0       0.37705498454199615           0.5336666940933719 0.0962805007902956 1.0000   
         C         C         1.0       0.3773931685835302  0.5054685911182445  0.0922400059977484 1.0000   
         C         C         1.0       0.4014552305079368  0.5058475489735264  0.11178371022230249          1.0000   
         C         C         1.0       0.4217174378561584  0.5339575075059861  0.13853165452158955          1.0000   
         C         C         1.0       0.42337873525427666           0.5633717044795147 0.1412540961507618 1.0000   
         C         C         1.0       0.3789992687330788  0.6181095151147941  0.07509285800656396          1.0000   
         C         C         1.0       0.39081219946170803           0.6337092866539168 0.04170436024657698          1.0000   
         C         C         1.0       0.4153391490169805  0.6314060962336547  0.013288785888937005         1.0000   
         C         C         1.0       0.417586245051448   0.6048203005403429  0.014627849310541396         1.0000   
         C         C         1.0       0.4125701791300471  0.593425349366343   0.049496448733976406         1.0000   
         C         C         1.0       0.3955830562113361  0.6024197957180466  0.08125625704635042          1.0000   
         C         C         1.0       0.43838614487225636           0.6545779540787133 0.9806277700870351 1.0000   
         C         C         1.0       0.37471840214690644           0.6102239200184039 0.8777033085907253 1.0000   
         C         C         1.0       0.37885474666319685           0.6385611148710095 0.9032107515613332 1.0000   
         C         C         1.0       0.39675180985891234           0.650528612227829  0.935374411405827  1.0000   
         C         C         1.0       0.4128118243284658  0.6363499353908066  0.9445354693879834 1.0000   
         C         C         1.0       0.40638778482717786           0.6073534267220079 0.9226621512375314 1.0000   
         C         C         1.0       0.3885264654016628  0.5947762889406351  0.8877253167899835 1.0000   
         C         C         1.0       0.47840974020423976           0.6585626941672298 0.9776628850929459 1.0000   
         C         C         1.0       0.4910717536539852  0.6459899917146252  0.9440551406745289 1.0000   
         C         C         1.0       0.5170892247365854  0.6419476953105236  0.947768384055125  1.0000   
         C         C         1.0       0.5313945732108054  0.6482251564735103  0.9817082002173736 1.0000   
         C         C         1.0       0.5231266549441168  0.6652437697943653  0.013518279872748895         1.0000   
         C         C         1.0       0.4984914425814699  0.6719705132322299  0.009091942085407867         1.0000   
         C         C         1.0       0.47435212961159784           0.7129949822619736 0.9600992858957608 1.0000   
         C         C         1.0       0.48816330731018537           0.746612415893314  0.9661705344958362 1.0000   
         C         C         1.0       0.48259675271484304           0.7616161878824977 0.0010564231449214923        1.0000   
         C         C         1.0       0.4646143182745992  0.7443492247427058  0.03152584663478297          1.0000   
         C         C         1.0       0.45127974013273003           0.7101468131461094 0.027260960798569434         1.0000   
         C         C         1.0       0.4545469877685911  0.693811558462271   0.9898911424317037 1.0000   
         H         H         1.0       0.40459762057278276           0.6051557636598706 0.20089018429846317          1.0000   
         H         H         1.0       0.32521075661104787           0.5684528732291158 0.11782806060846762          1.0000   
         H         H         1.0       0.272306780250014   0.538573387899348   0.17089226903976962          1.0000   
         H         H         1.0       0.3579405233259101  0.5786009998451799  0.24903167941383209          1.0000   
         H         H         1.0       0.3644811820639347  0.5361003720139846  0.07654439588304185          1.0000   
         H         H         1.0       0.3600259971164868  0.48323601870589794           0.0718893745005722 1.0000   
         H         H         1.0       0.43938717299103613           0.5344766856706379 0.15599909180452864          1.0000   
         H         H         1.0       0.4405438339860303  0.5852733615309632  0.15970250726417023          1.0000   
         H         H         1.0       0.3625555002219231  0.6221935831072186  0.09454820958935217          1.0000   
         H         H         1.0       0.38021305987345344           0.6487651646279118 0.04220633585491074          1.0000   
         H         H         1.0       0.4278959740999641  0.5951803073109094  0.9935468726171982 1.0000   
         H         H         1.0       0.42443085643158535           0.5793175471545542 0.048088768928060244         1.0000   
         H         H         1.0       0.36874752722784876           0.6529892676377974 0.898955563872709  1.0000   
         H         H         1.0       0.4014085062040809  0.6742679406659181  0.9502453377705079 1.0000   
         H         H         1.0       0.41880232159471265           0.5961421727745255 0.930488917225538  1.0000   
         H         H         1.0       0.387624120581251   0.5744843679626308  0.8661508514946694 1.0000   
         H         H         1.0       0.4767927525813937  0.6355506925041101  0.918327083426004  1.0000   
         H         H         1.0       0.5223082759094156  0.6297806094580577  0.9234543223548551 1.0000   
         H         H         1.0       0.5360981797743177  0.6741905630891075  0.040369582333547926         1.0000   
         H         H         1.0       0.4899967003409691  0.6832712321180195  0.03331693373791067          1.0000   
         H         H         1.0       0.4809668983575837  0.7023620878927491  0.9321355236416404 1.0000   
         H         H         1.0       0.49973758442024363           0.7585711478214133 0.9409651743998032 1.0000   
         H         H         1.0       0.4637588572909457  0.7575160846333978  0.0591930895408721 1.0000   
         H         H         1.0       0.4403840131472216  0.6967907299960988  0.05006133772462196          1.0000   
         C         C         1.0       0.17486515115234277           0.7120979783863021 0.3919521987089114 1.0000   
         C         C         1.0       0.17401617821984233           0.7088936191661848 0.4283687992903332 1.0000   
         C         C         1.0       0.1918152401114479  0.6957837362308665  0.43593117972207335          1.0000   
         C         C         1.0       0.20569690242215838           0.6816113863807598 0.40543655692682523          1.0000   
         C         C         1.0       0.20404951333561114           0.6835084630185814 0.36877739672660764          1.0000   
         C         C         1.0       0.19003705910931107           0.7003635799901722 0.3621379737166178 1.0000   
         H         H         1.0       0.1611015164654671  0.7177150332770696  0.4526116803152355 1.0000   
         H         H         1.0       0.19389397352110171           0.6943060796957926 0.46540098851300826          1.0000   
         H         H         1.0       0.21867482393049892           0.6773538347435433 0.345158802776018  1.0000   
         H         H         1.0       0.18805200757344262           0.7052299740786588 0.3338571589861392 1.0000   
         C         C         1.0       0.18407774455885242           0.610172321124772  0.36441144796937774          1.0000   
         C         C         1.0       0.2182838147291376  0.6335390510431103  0.3825474369428256 1.0000   
         C         C         1.0       0.24579470048933272           0.628054354925404  0.3748717024115264 1.0000   
         C         C         1.0       0.24067819322150205           0.6002929269244766 0.3508784129562532 1.0000   
         C         C         1.0       0.20898182891194958           0.5776774870193221 0.33346171380450695          1.0000   
         C         C         1.0       0.18042403905537202           0.5828822340637727 0.3389227912158267 1.0000   
         C         C         1.0       0.22230164423866106           0.663925937056395  0.4156211479767707 1.0000   
         C         C         1.0       0.2016320796209874  0.6409843038349594  0.451690745058609  1.0000   
         C         C         1.0       0.21972545879502953           0.6317104667186958 0.4689177407689924 1.0000   
         C         C         1.0       0.19951010495875687           0.6040830542825648 0.48993826754821873          1.0000   
         C         C         1.0       0.6467846719092847  0.6505017182857005  0.41232103327936287          1.0000   
         C         C         1.0       0.6484268318895424  0.633211526351588   0.37620631004284905          1.0000   
         C         C         1.0       0.16366480035148395           0.6237469011053047 0.4564492180181482 1.0000   
         C         C         1.0       0.28830520946919413           0.7074116671473718 0.39195556090278594          1.0000   
         C         C         1.0       0.33105519462403654           0.15327985174494935          0.27762715884492883          1.0000   
         C         C         1.0       0.31053228539225425           0.16257711134434213          0.2684523185735538 1.0000   
         C         C         1.0       0.2746935191615053  0.13665031365528835           0.2558418178484972 1.0000   
         C         C         1.0       0.26091205072808765           0.103879896333009  0.2559814563223767 1.0000   
         C         C         1.0       0.2636212071621349  0.6944288955708162  0.42315605370694376          1.0000   
         C         C         1.0       0.32480918924581387           0.20223564731995058          0.2757846952904748 1.0000   
         C         C         1.0       0.3059928908627539  0.20207361013178599           0.4039373227921234 1.0000   
         C         C         1.0       0.3418092472381632  0.21438461377302126           0.38537311581661393          1.0000   
         C         C         1.0       0.347702904237705   0.21647166335726112           0.3455985956118206 1.0000   
         C         C         1.0       0.31975517288264826           0.20629778168802942          0.32281051907594877          1.0000   
         C         C         1.0       0.28464761480192524           0.19138929332395563          0.34275002264853116          1.0000   
         C         C         1.0       0.27758927507525016           0.19049356060563558          0.3812765196511885 1.0000   
         C         C         1.0       0.3031955914240681  0.21543278960571283           0.26046725455469333          1.0000   
         C         C         1.0       0.29342485204907914           0.20392465395298534          0.22184325437578203          1.0000   
         C         C         1.0       0.29099404003163953           0.22323432357587045          0.2019608702821951 1.0000   
         C         C         1.0       0.2970423829596496  0.25363844274581754           0.21948066855648618          1.0000   
         C         C         1.0       0.3049305234412667  0.2657757679494319  0.2570519675715136 1.0000   
         C         C         1.0       0.30926232692126154           0.24693113549672124          0.2770924868360376 1.0000   
         C         C         1.0       0.38831620773943204           0.26007284011153753          0.2696941932621718 1.0000   
         C         C         1.0       0.41806640109202314           0.28205214969236453          0.2460244164911895 1.0000   
         C         C         1.0       0.424316247104442   0.2713144998249215  0.2087887335612075 1.0000   
         C         C         1.0       0.40117387889755013           0.23750115096414323          0.19376492360254977          1.0000   
         C         C         1.0       0.3712456525710431  0.2147680566996772  0.21631447044287647          1.0000   
         C         C         1.0       0.36463813851560156           0.22655585797524347          0.25391221746575565          1.0000   
         H         H         1.0       0.16147443745759746           0.6138029963118296 0.3705782220011926 1.0000   
         H         H         1.0       0.2701739493242112  0.6453213518801183  0.3900968100221579 1.0000   
         H         H         1.0       0.2634514482182726  0.5980510788925608  0.34998253203081725          1.0000   
         H         H         1.0       0.15511008236313273           0.565115975763086  0.32234032989085415          1.0000   
         H         H         1.0       0.24881353654327087           0.6416262464748245 0.46057628783446125          1.0000   
         H         H         1.0       0.21130804280959664           0.5938378896670243 0.49632181722310964          1.0000   
         H         H         1.0       0.6325560241181905  0.6280389622859552  0.3535756933267227 1.0000   
         H         H         1.0       0.1478665522625152  0.6245267993454356  0.4386831144464582 1.0000   
         H         H         1.0       0.27852677655043    0.7013250429015142  0.3640662729142297 1.0000   
         H         H         1.0       0.34267300953049606           0.7294546625675625 0.366563466108349  1.0000   
         H         H         1.0       0.2596526333381361  0.14550530286660246           0.2497102821468545 1.0000   
         H         H         1.0       0.23297524915663226           0.08652080980146228          0.24900290784801596          1.0000   
         H         H         1.0       0.36424347012908664           0.22363552481982185          0.40246167985402864          1.0000   
         H         H         1.0       0.3757702225137453  0.22738171272366575           0.3315408030420229 1.0000   
         H         H         1.0       0.2588900646228527  0.17848021787660054           0.32850830984809803          1.0000   
         H         H         1.0       0.24850120529862987           0.18105583568344719          0.3952233930717105 1.0000   
         H         H         1.0       0.291453641052096   0.1813191368237453  0.2049509635124534 1.0000   
         H         H         1.0       0.2833501581266914  0.21420996992183897           0.17064633818816868          1.0000   
         H         H         1.0       0.31175424460109563           0.2891412179121678 0.27167805211952645          1.0000   
         H         H         1.0       0.31057670621613087           0.25399785361264254          0.307987477363537  1.0000   
         H         H         1.0       0.38491018833295515           0.2715244834795064 0.29845263924883064          1.0000   
         H         H         1.0       0.4348616946424314  0.308790206604799   0.25370904135904665          1.0000   
         H         H         1.0       0.4063260090990771  0.23185662441363203           0.1627371201717499 1.0000   
         H         H         1.0       0.3498728907133005  0.1894671752201516  0.2025262357463346 1.0000   
         C         C         1.0       0.5134798882482394  0.48116641714901887           0.119289967611637  1.0000   
         C         C         1.0       0.4777879860189824  0.456960409363492   0.12677902829261378          1.0000   
         C         C         1.0       0.4689095505705159  0.433695711401344   0.14778219604112716          1.0000   
         C         C         1.0       0.49539444873108107           0.43082059687529145          0.15755325127331554          1.0000   
         C         C         1.0       0.5334470021461438  0.4574706447607229  0.14972072529495173          1.0000   
         C         C         1.0       0.5416917004726346  0.4830180897466508  0.13176621443714606          1.0000   
         H         H         1.0       0.45446911973276927           0.45411660598570985          0.11627549340387877          1.0000   
         H         H         1.0       0.4406118841811828  0.41783780450533525           0.15554224974148556          1.0000   
         H         H         1.0       0.5560576001503477  0.45823999594908965           0.15719193570305245          1.0000   
         H         H         1.0       0.5701302525635569  0.5031052837659962  0.12598603754242488          1.0000   
         C         C         1.0       0.5269060863649122  0.38774450660859766           0.13664002812238205          1.0000   
         C         C         1.0       0.511154351740472   0.39052413709919404           0.1727017019892318 1.0000   
         C         C         1.0       0.5240205625039526  0.38913079841626685           0.20409633913544323          1.0000   
         C         C         1.0       0.5500665862224491  0.38135741523678757           0.19975446151401777          1.0000   
         C         C         1.0       0.56509264930141    0.37823487712763354           0.16306281827654642          1.0000   
         C         C         1.0       0.5524877285263627  0.3806989263825751  0.1315395462665887 1.0000   
         C         C         1.0       0.48198854685351955           0.4010943307970916 0.17983154916288865          1.0000   
         C         C         1.0       0.4437197871869842  0.3655985703885192  0.17039718270104298          1.0000   
         C         C         1.0       0.42442781019495357           0.34474182922005286          0.19863748732795347          1.0000   
         C         C         1.0       0.38740950047420647           0.3187760175618686 0.1936346101579117 1.0000   
         C         C         1.0       0.3723668401057948  0.31073974693319467           0.16093699857868665          1.0000   
         C         C         1.0       0.39449477343599076           0.3282100451921721 0.12972425789217532          1.0000   
         C         C         1.0       0.4312871162513387  0.35487583569106795           0.13498347627443996          1.0000   
         C         C         1.0       0.5091020551787859  0.44525430971126817           0.24133121488726295          1.0000   
         C         C         1.0       0.5088414617628729  0.463391367197509   0.27569538371260166          1.0000   
         C         C         1.0       0.4772093409928093  0.4596783744022508  0.2937159913347948 1.0000   
         C         C         1.0       0.44627474088932556           0.4370722217854007 0.27273113837430113          1.0000   
         C         C         1.0       0.44642536591962373           0.4174516442303729 0.23832044635714053          1.0000   
         C         C         1.0       0.4770344845549255  0.41996240694280396           0.2240388821058749 1.0000   
         C         C         1.0       0.47716326370427703           0.4805163014598492 0.3364104329931913 1.0000   
         C         C         1.0       0.38165276020619726           0.4258574965001215 0.41539494603275345          1.0000   
         C         C         1.0       0.40239189652776214           0.46059191303293345          0.41929316074236556          1.0000   
         C         C         1.0       0.4301872416534881  0.4779417382963238  0.392499243022711  1.0000   
         C         C         1.0       0.4373285187511966  0.45913849023421727           0.3610963090795675 1.0000   
         C         C         1.0       0.4170227374940153  0.42418993148147704           0.35796964039962187          1.0000   
         C         C         1.0       0.3895684923492729  0.40737586357387046           0.38598677428284167          1.0000   
         C         C         1.0       0.48537558869092773           0.51372786609356   0.323558317910777  1.0000   
         C         C         1.0       0.5190899854655272  0.5453704065574126  0.3269725784029233 1.0000   
         C         C         1.0       0.5247067166672159  0.5741544507631617  0.3169449960059562 1.0000   
         C         C         1.0       0.4957816812781443  0.5709513547953419  0.303865229056023  1.0000   
         C         C         1.0       0.46262477447982686           0.5402676462335928 0.29984050814808977          1.0000   
         C         C         1.0       0.457782654669995   0.5118386623951819  0.3085316714797837 1.0000   
         C         C         1.0       0.5106530695010127  0.46074066371951156           0.36287299019415004          1.0000   
         C         C         1.0       0.5284012983250609  0.46081728830502006           0.39098591333170896          1.0000   
         C         C         1.0       0.5399122410481011  0.48509925676483007           0.42233014466894875          1.0000   
         C         C         1.0       0.5340246972890117  0.5104135799241487  0.4244274719563354 1.0000   
         C         C         1.0       0.5159069336534665  0.5096959531480904  0.3966486806722688 1.0000   
         C         C         1.0       0.502584969878474   0.4846246974512604  0.36653454277607894          1.0000   
         H         H         1.0       0.5174916709263744  0.38709570026793505           0.11130996679148895          1.0000   
         H         H         1.0       0.5116857952891479  0.39260500034172    0.23293687647410655          1.0000   
         H         H         1.0       0.561106672847673   0.3832994794442661  0.22686096351753218          1.0000   
         H         H         1.0       0.5624893074262656  0.3772544404994068  0.10308840323776634          1.0000   
         H         H         1.0       0.4364310595320222  0.35342793771355496           0.2269783058111309 1.0000   
         H         H         1.0       0.37070163063592765           0.3083605670720722 0.22014348365373093          1.0000   
         H         H         1.0       0.3839443002956494  0.31973294577324785           0.102762746486464  1.0000   
         H         H         1.0       0.447375358346889   0.36938106001132215           0.11080836464610067          1.0000   
         H         H         1.0       0.5336127429866849  0.4483504959398615  0.2295166534459861 1.0000   
         H         H         1.0       0.5355803992825098  0.4813878861278365  0.28793250244222685          1.0000   
         H         H         1.0       0.41933041214459665           0.42994944591946643          0.2853552799108997 1.0000   
         H         H         1.0       0.41939480642663246           0.3989567399941087 0.2248518745590626 1.0000   
         H         H         1.0       0.3959210544552439  0.47340123442325865           0.4428386627231343 1.0000   
         H         H         1.0       0.4459421386994159  0.504886801230009   0.39788201332169876          1.0000   
         H         H         1.0       0.42807140876919764           0.41143579444067685          0.33696272972478913          1.0000   
         H         H         1.0       0.375857577682564   0.3796961207619209  0.3829083599192278 1.0000   
         H         H         1.0       0.5422871759654825  0.5481388106526223  0.33605339377975585          1.0000   
         H         H         1.0       0.5534288402727602  0.5974951645249297  0.31470404762679166          1.0000   
         H         H         1.0       0.4373083396630171  0.5357758175751643  0.29124641022787007          1.0000   
         H         H         1.0       0.4310645806936253  0.487044444073078   0.30483406779912103          1.0000   
         H         H         1.0       0.49736202099460897           0.438140755616583  0.3424818399211894 1.0000   
         H         H         1.0       0.5327690324457255  0.440528525724709   0.3871429997796225 1.0000   
         H         H         1.0       0.5470719046722208  0.5328232163439084  0.4432188638217587 1.0000   
         H         H         1.0       0.5098192514702912  0.5266494464127741  0.39871073430020515          1.0000   
         C         C         1.0       0.6043919896853819  0.33680515358350027           0.5152405020808004 1.0000   
         C         C         1.0       0.6292199126019178  0.3398377303512101  0.4849629279806679 1.0000   
         C         C         1.0       0.6179144365221586  0.31547541956342495           0.4539739700680024 1.0000   
         C         C         1.0       0.580371151052663   0.2895879802596976  0.4504819501516093 1.0000   
         C         C         1.0       0.5534050531738864  0.29001265003344895           0.4792419369599677 1.0000   
         C         C         1.0       0.5664653177695271  0.31313566928365427           0.512443713003408  1.0000   
         H         H         1.0       0.659772221431009   0.35525034426331853           0.4857400194950661 1.0000   
         H         H         1.0       0.6378285046504504  0.3172299511651649  0.43365227874318985          1.0000   
         H         H         1.0       0.5244159100796925  0.2724519142672219  0.4735807348878807 1.0000   
         H         H         1.0       0.5463066549783372  0.31095333069106434           0.5358906128172068 1.0000   
         C         C         1.0       0.4665231923006888  0.6451741329721308  0.40969112541446084          1.0000   
         C         C         1.0       0.4956829746420107  0.6801870976309167  0.41233550088602594          1.0000   
         C         C         1.0       0.5175753765527799  0.6915578990594274  0.3792212601098852 1.0000   
         C         C         1.0       0.5124475799516226  0.6701413104536358  0.3443140759904053 1.0000   
         C         C         1.0       0.4844244264568386  0.6359133852234844  0.34481237485836946          1.0000   
         C         C         1.0       0.46319350681981375           0.6243979248838505 0.37633224279325184          1.0000   
         C         C         1.0       0.568896738806269   0.25956339262734857           0.4156078181475541 1.0000   
         C         C         1.0       0.5975961870853386  0.25047012662150153           0.4106469599239447 1.0000   
         C         C         1.0       0.6096589815286656  0.24023751496698106           0.3744465872302965 1.0000   
         C         C         1.0       0.6306521941206518  0.22749154619566314           0.372036500482384  1.0000   
         C         C         1.0       0.6398518020249035  0.2250820289162465  0.40558677330187703          1.0000   
         C         C         1.0       0.626400157912751   0.23286088021728465           0.4412411946181628 1.0000   
         C         C         1.0       0.6053789245969913  0.24499453434602486           0.44304912869465246          1.0000   
         C         C         1.0       0.5390122809862516  0.2668310947467652  0.3671044692091344 1.0000   
         C         C         1.0       0.5408936375364499  0.273484102612986   0.33156169983220185          1.0000   
         C         C         1.0       0.5752568832283372  0.29053229582320644           0.30931037749801904          1.0000   
         C         C         1.0       0.6074056960697851  0.30590419626566623           0.32840160631950105          1.0000   
         C         C         1.0       0.6049350520352317  0.2987538639522717  0.3635197962833524 1.0000   
         C         C         1.0       0.5710698436416337  0.275247095591408   0.3801525311560517 1.0000   
         C         C         1.0       0.5730286350242215  0.2809690000442149  0.2636329535074389 1.0000   
         C         C         1.0       0.582495854910302   0.19678403102378425           0.26467104925828483          1.0000   
         C         C         1.0       0.5485731586960536  0.1927079150079539  0.26834354476525546          1.0000   
         C         C         1.0       0.5451401137725879  0.21692792604658445           0.2640255970986823 1.0000   
         C         C         1.0       0.5766858690999193  0.2491911167095952  0.2583127593313999 1.0000   
         C         C         1.0       0.6106203748679061  0.25411447327478737           0.25509055985043516          1.0000   
         C         C         1.0       0.613294111640415   0.22807927078863918           0.2572839869166455 1.0000   
         C         C         1.0       0.6057505542451375  0.31331273987725505           0.2435069149422607 1.0000   
         C         C         1.0       0.6158899615288099  0.34554915565848016           0.262006945250817  1.0000   
         C         C         1.0       0.623722072443001   0.36813018883604115           0.23875715625984525          1.0000   
         C         C         1.0       0.6270372015054634  0.3619264882754089  0.19940642888101953          1.0000   
         C         C         1.0       0.6279389368191353  0.33457949567156775           0.18205364007459368          1.0000   
         C         C         1.0       0.6172814960041406  0.3101260377243945  0.20432642870439505          1.0000   
         C         C         1.0       0.524036951596655   0.24916967512445298           0.21196274806767137          1.0000   
         C         C         1.0       0.50153969421945    0.24950855425468263           0.19002885528866154          1.0000   
         C         C         1.0       0.4966511401670233  0.274999578878828   0.19773444797579948          1.0000   
         C         C         1.0       0.5070169735765675  0.2955750265340174  0.23254720315323965          1.0000   
         C         C         1.0       0.5274269705308819  0.29425579052945505           0.25495771600649697          1.0000   
         C         C         1.0       0.5389539118917879  0.27239732888386564           0.24386718813583733          1.0000   
         H         H         1.0       0.4446961518361128  0.6328751283054949  0.4302394734652989 1.0000   
         H         H         1.0       0.5436897600431476  0.7170986445386283  0.38232503475858864          1.0000   
         H         H         1.0       0.5318178750085585  0.6782362071452056  0.3186369015417198 1.0000   
         H         H         1.0       0.4385010149645669  0.5978724280555898  0.37364339642685224          1.0000   
         H         H         1.0       0.6007313915059816  0.2400443462537206  0.3464723299538192 1.0000   
         H         H         1.0       0.6382581576229475  0.2173349012644661  0.3444750578002065 1.0000   
         H         H         1.0       0.6247511863641627  0.2240163966272071  0.4677322029308666 1.0000   
         H         H         1.0       0.591143263100525   0.24673211472525197           0.4726070768583569 1.0000   
         H         H         1.0       0.5120700658041173  0.25214556882547856           0.3833894399024758 1.0000   
         H         H         1.0       0.512943979550113   0.2596778669114107  0.3209425829604179 1.0000   
         H         H         1.0       0.6316561909384537  0.31356049945482684           0.30855676660906156          1.0000   
         H         H         1.0       0.6309081503824661  0.3071146563532042  0.371041635440518  1.0000   
         H         H         1.0       0.5961542831756295  0.7556387812811269  0.32231305614134875          1.0000   
         H         H         1.0       0.5185085278151396  0.21167673347134847           0.2660569272412587 1.0000   
         H         H         1.0       0.6350011306834763  0.27909598818625353           0.2503840757333787 1.0000   
         H         H         1.0       0.6410136063210383  0.2339667740752776  0.25283497213177347          1.0000   
         H         H         1.0       0.6128457046665262  0.3548433919183794  0.2922145728346737 1.0000   
         H         H         1.0       0.6288226892290757  0.3909036913369738  0.2536689341171325 1.0000   
         H         H         1.0       0.6299778237048521  0.32720695325476096           0.15176416773687218          1.0000   
         H         H         1.0       0.613235065713691   0.2858541961669925  0.19090610002641722          1.0000   
         H         H         1.0       0.5318165507396971  0.23241999301590807           0.1995446454298472 1.0000   
         H         H         1.0       0.48874718266311146           0.2285953911686449 0.16608312261061176          1.0000   
         H         H         1.0       0.5046707542742822  0.3162072652486512  0.23993511352773247          1.0000   
         H         H         1.0       0.5369423556222096  0.31096747974712435           0.28296416174634204          1.0000   
         C         C         1.0       0.6412530585231615  0.7015091151483129  0.320205678145309  1.0000   
         C         C         1.0       0.6744307627246042  0.706305665349386   0.3066788182436054 1.0000   
         C         C         1.0       0.6770374294088536  0.6882708689227867  0.27298994604277765          1.0000   
         C         C         1.0       0.6455517356823943  0.6654643314509769  0.2523465961486153 1.0000   
         C         C         1.0       0.6109379743650012  0.6577592851565253  0.2689432255782856 1.0000   
         C         C         1.0       0.6099365358375074  0.6762070386809513  0.30229470959370347          1.0000   
         H         H         1.0       0.6988677473273092  0.7229367042615551  0.32222680779192   1.0000   
         H         H         1.0       0.7029013640476418  0.6923774730438863  0.26214486324656994          1.0000   
         H         H         1.0       0.5851414621762772  0.6385292900897175  0.2553048344876823 1.0000   
         H         H         1.0       0.5850506123952274  0.6723006430436445  0.3151242219660652 1.0000   
         C         C         1.0       0.5840811639828308  0.5890707602506696  0.20646177751009767          1.0000   
         C         C         1.0       0.6126063196446554  0.6172756015343613  0.19010948222017335          1.0000   
         C         C         1.0       0.6108070964188145  0.6173212117153769  0.15089436033683135          1.0000   
         C         C         1.0       0.578488263047623   0.5923796612504576  0.13219282651989905          1.0000   
         C         C         1.0       0.5513110641338136  0.5640566732131449  0.1492122932878075 1.0000   
         C         C         1.0       0.5530240231318     0.5627459018409218  0.18721425423645602          1.0000   
         C         C         1.0       0.649747926921885   0.6514250840338615  0.20983235825452146          1.0000   
         C         C         1.0       0.6734607099053241  0.6361949072586399  0.2081368824694526 1.0000   
         C         C         1.0       0.7000092064336773  0.6411051647686509  0.17831029693436945          1.0000   
         C         C         1.0       0.09378869734621105           0.632612897808259  0.3458682316606946 1.0000   
         C         C         1.0       0.10190040746579225           0.6633744334362781 0.3411085024080109 1.0000   
         C         C         1.0       0.10064381314291419           0.6714263450947328 0.30661753067262143          1.0000   
         C         C         1.0       0.6657221436806718  0.6148873293960868  0.2340160995970146 1.0000   
         C         C         1.0       0.6365404627734541  0.6886628881884171  0.18698628396479536          1.0000   
         C         C         1.0       0.6455529807041657  0.7127168617623523  0.16368045788543079          1.0000   
         C         C         1.0       0.6801445177036151  0.7338234677593809  0.146909344478668  1.0000   
         C         C         1.0       0.7075822763653123  0.7342296308620634  0.1601473073463578 1.0000   
         C         C         1.0       0.7000791572798912  0.7086497287310619  0.17973891947413245          1.0000   
         C         C         1.0       0.6636107917965034  0.6844558377545155  0.19133308714601682          1.0000   
         C         C         1.0       0.6812195046701996  0.7476266053950257  0.10855638886664742          1.0000   
         C         C         1.0       0.6676679801832909  0.6566482137544547  0.03447210467316597          1.0000   
         C         C         1.0       0.6383944122936542  0.6573660604759068  0.053122059073297034         1.0000   
         C         C         1.0       0.6416894520643202  0.6860661228275068  0.07056815525365878          1.0000   
         C         C         1.0       0.6752358840599243  0.7158495564312408  0.07748247798129815          1.0000   
         C         C         1.0       0.7058491249099237  0.7149868750973498  0.062410472835777275         1.0000   
         C         C         1.0       0.7023321186350308  0.6856753949022727  0.04158530506074398          1.0000   
         C         C         1.0       0.7185356781698591  0.7822045331509538  0.09714497355007778          1.0000   
         C         C         1.0       0.742256721983555   0.8079823463322168  0.12451352863834231          1.0000   
         C         C         1.0       0.6672344021533881  0.16454032050449566           0.20831870058587998          1.0000   
         C         C         1.0       0.6970537449316649  0.1859036667620745  0.18437554285340152          1.0000   
         C         C         1.0       0.6966148014208516  0.1748389263495027  0.14507884807777383          1.0000   
         C         C         1.0       0.729544208055609   0.788196578056407   0.0590510669208173 1.0000   
         C         C         1.0       0.6255608814518059  0.7420146527147785  0.08326256044797997          1.0000   
         C         C         1.0       0.5948927894723723  0.7427253926337389  0.09126094495262271          1.0000   
         C         C         1.0       0.5918532346036453  0.7626041134354935  0.12333552455309826          1.0000   
         C         C         1.0       0.622221370670381   0.7825503786852931  0.1457403028701616 1.0000   
         C         C         1.0       0.6511362190321663  0.778892468120574   0.14091062560135414          1.0000   
         C         C         1.0       0.651739458400976   0.7565237550482449  0.11076318785811434          1.0000   
         H         H         1.0       0.582270228736067   0.5833878426399913  0.23481810219916366          1.0000   
         H         H         1.0       0.634455317135708   0.6367082973265867  0.13476549871095855          1.0000   
         H         H         1.0       0.5802171655331675  0.5932951103648127  0.10053684712378352          1.0000   
         H         H         1.0       0.5314632068588975  0.540895565843684   0.19964865000958995          1.0000   
         H         H         1.0       0.705181166775638   0.654136901699517   0.15373623879167542          1.0000   
         H         H         1.0       0.09136038991375976           0.6246163760911554 0.37362202770578773          1.0000   
         H         H         1.0       0.10916375639246344           0.6965856067577068 0.3036704482150382 1.0000   
         H         H         1.0       0.642240627788006   0.6081787846440065  0.2567588344241909 1.0000   
         H         H         1.0       0.6080247560941279  0.6728988258925342  0.20106721175321304          1.0000   
         H         H         1.0       0.6228909387740575  0.7125564787560381  0.1583998747627522 1.0000   
         H         H         1.0       0.7371448192240112  0.7488532621242351  0.15038094921090517          1.0000   
         H         H         1.0       0.720846927996528   0.7066179137823276  0.1857979306534409 1.0000   
         H         H         1.0       0.6108911251832309  0.6346656263760252  0.04959976277857869          1.0000   
         H         H         1.0       0.6171032793690258  0.6826860251265829  0.08760188166394056          1.0000   
         H         H         1.0       0.7305750851073093  0.7354540940039941  0.07512833284470344          1.0000   
         H         H         1.0       0.7247610581329215  0.6831821515053763  0.030622133324478273         1.0000   
         H         H         1.0       0.733039433155035   0.8075704139500732  0.1553789935292973 1.0000   
         H         H         1.0       0.6670547501626747  0.17283141670735677           0.23686457942650146          1.0000   
         H         H         1.0       0.7168287277873248  0.1916439938232689  0.12576243828734257          1.0000   
         H         H         1.0       0.7117299461384788  0.7688785463610127  0.03661216988357152          1.0000   
         H         H         1.0       0.6256607115802734  0.7255971439267125  0.057763001371585077         1.0000   
         H         H         1.0       0.5707336544645976  0.7245109135196741  0.07395179724804435          1.0000   
         H         H         1.0       0.6226802254006273  0.8028332500735749  0.16705940959828092          1.0000   
         H         H         1.0       0.6705539159387521  0.792772925121254   0.1631792072850804 1.0000   
         C         C         1.0       0.6409090067941644  0.7263290780990482  0.3527231751455899 1.0000   
         C         C         1.0       0.5837112788203241  0.16501074329682905           0.26265656403594956          1.0000   
         H         H         1.0       0.6064726901514148  0.16954611499603314           0.3126939956578099 1.0000   
         H         H         1.0       0.6105451865939117  0.7132201847720004  0.36360750772122635          1.0000   
         H         H         1.0       0.6436744684914593  0.7492754458347878  0.3083256896833552 1.0000   
         H         H         1.0       0.6103698900070801  0.1686545963107873  0.24818151744588907          1.0000   
         C         C         1.0       0.5169267120492065  0.5364947707870305  0.12696679826771562          1.0000   
         C         C         1.0       0.5234552931244848  0.5105261915488561  0.09910986820117662          1.0000   
         H         H         1.0       0.49037768923653324           0.5226602198240795 0.14433769274153363          1.0000   
         H         H         1.0       0.5155057727795672  0.553417687477708   0.11255908754068965          1.0000   
         H         H         1.0       0.5042832660020585  0.49930953504393855           0.07674199608574961          1.0000   
         H         H         1.0       0.5537186083975892  0.5237495992413342  0.08689276656603417          1.0000   
         C         C         1.0       0.5019684380304211  0.6012463017800841  0.2908464865263562 1.0000   
         C         C         1.0       0.475552825919998   0.6135507189504523  0.30679142523370273          1.0000   
         H         H         1.0       0.5303205158377421  0.6231440610632536  0.2992260696173536 1.0000   
         H         H         1.0       0.5005064137445417  0.5975174418691133  0.2599716458627897 1.0000   
         H         H         1.0       0.44547596668555245           0.5914889900671184 0.3066116612038823 1.0000   
         H         H         1.0       0.476165994092008   0.6242202448620863  0.28371733814786076          1.0000   
         C         C         1.0       0.5875150611721175  0.36265972261763674           0.1557041476220109 1.0000   
         C         C         1.0       0.6253030407591077  0.3844734014128142  0.17657066582415862          1.0000   
         H         H         1.0       0.5926522899825284  0.35862045393462766           0.12538092411073376          1.0000   
         H         H         1.0       0.567619094842311   0.33630799723217236           0.16463962371674096          1.0000   
         H         H         1.0       0.6255387887053537  0.4053772484898682  0.19859508569511888          1.0000   
         H         H         1.0       0.6505307702235634  0.40352743061856106           0.15954481300437312          1.0000   
         C         C         1.0       0.15100272195614506           0.7216450083590934 0.3828984570795013 1.0000   
         C         C         1.0       0.11013119880958426           0.6895364095509559 0.37739408811630315          1.0000   
         H         H         1.0       0.1550243556491649  0.741829738628308   0.4087027385381931 1.0000   
         H         H         1.0       0.1623829298127771  0.73540917510199    0.3580735136359233 1.0000   
         H         H         1.0       0.09436853919389428           0.7014842011361065 0.377757073681378  1.0000   
         H         H         1.0       0.09813289582574877           0.6761657591479957 0.4023850204133091 1.0000   
         C         C         1.0       0.6225604588519001  0.663634715917      0.41790372399171555          1.0000   
         C         C         1.0       0.6625217589259756  0.20955682946261606           0.4020037137682297 1.0000   
         H         H         1.0       0.6354388237772675  0.6843032933555647  0.40128362827310193          1.0000   
         H         H         1.0       0.5972745498406514  0.6450727960608608  0.4044051207900344 1.0000   
         H         H         1.0       0.6611444509284103  0.20261949827904333           0.4292200015341462 1.0000   
         H         H         1.0       0.6894670709210683  0.23091116457438976           0.3949071971317158 1.0000   
         C         C         1.0       0.45782993935107663           0.2935656100437112 0.18199898924324198          1.0000   
         C         C         1.0       0.4845541019727242  0.2832747929110829  0.16559685534150137          1.0000   
         H         H         1.0       0.44867327355382053           0.2944612384641065 0.1571630511061941 1.0000   
         H         H         1.0       0.4780495390604474  0.32214342002261437           0.19103114175524052          1.0000   
         H         H         1.0       0.468573348035178   0.2619583472329285  0.14477865381901545          1.0000   
         H         H         1.0       0.5089983433144679  0.30229818229375516           0.14831974933933023          1.0000   
         C         C         1.0       0.29891645000656164           0.2763174384819484 0.19275688679026123          1.0000   
         C         C         1.0       0.328972595826366   0.286442219838544   0.1568793730957443 1.0000   
         H         H         1.0       0.269264494222617   0.2603679527155294  0.186861194438193  1.0000   
         H         H         1.0       0.3030648042461335  0.2998605973817043  0.20577979117280076          1.0000   
         H         H         1.0       0.3239009040297377  0.2984245865180124  0.13867485153353984          1.0000   
         H         H         1.0       0.32490592519081724           0.26433088691229345          0.1371983931348637 1.0000   
         C         C         1.0       0.20706681250979025           0.5472115074972803 0.310419936671555  1.0000   
         C         C         1.0       0.562327287724893   0.48671148074955634           0.45202734775613573          1.0000   
         H         H         1.0       0.5829466731228212  0.461737709407678   0.4164967459085158 1.0000   
         H         H         1.0       0.23226417307872915           0.5559259901143238 0.2889668450494551 1.0000   
         H         H         1.0       0.22669962152194736           0.5400486078660629 0.36048442426595156          1.0000   
         H         H         1.0       0.5426987158429589  0.4628058142791265  0.4643658290328796 1.0000   
         C         C         1.0       0.5532529664660368  0.7554395138811245  0.13236658784327027          1.0000   
         C         C         1.0       0.5332874794362692  0.7324545267825449  0.16512218949853263          1.0000   
         H         H         1.0       0.5640512328453461  0.7834405712927625  0.14335806457234512          1.0000   
         H         H         1.0       0.5366758377758845  0.746541457364855   0.10805261099507302          1.0000   
         H         H         1.0       0.5269409411804455  0.7473970832669357  0.19195868195368515          1.0000   
         H         H         1.0       0.5530668239644999  0.7310720727043986  0.1764411936728516 1.0000   
         C         C         1.0       0.6613407067557227  0.6238025281622959  0.016576186759479583         1.0000   
         C         C         1.0       0.6700918707131678  0.6078412601524887  0.04328260702392561          1.0000   
         H         H         1.0       0.6343425128657356  0.6049097173914169  0.005984372185153797         1.0000   
         H         H         1.0       0.676850360695405   0.6286123530218295  0.9890530817329641 1.0000   
         H         H         1.0       0.6544922420899805  0.6039566978085594  0.07035923976631286          1.0000   
         H         H         1.0       0.6993346206902439  0.6281413075116176  0.051543104465078704         1.0000   
         C         C         1.0       0.28332820000022285           0.49615881741861567          0.2289370069337886 1.0000   
         C         C         1.0       0.2822361497980161  0.5285338469286547  0.23587110851541082          1.0000   
         H         H         1.0       0.3116671306769378  0.5013614523067748  0.2246506490977045 1.0000   
         H         H         1.0       0.27176765515206835           0.48547003000441263          0.2558333402565851 1.0000   
         H         H         1.0       0.28552332852187795           0.5377591334543684 0.26871351152733536          1.0000   
         H         H         1.0       0.2544738205229348  0.5219970611555227  0.23364138081191577          1.0000   
         C         C         1.0       0.5261020710184161  0.6009758937625607  0.010923803659296905         1.0000   
         C         C         1.0       0.5508345041607108  0.6326320658955382  0.9881714237161473 1.0000   
         H         H         1.0       0.4975136424230548  0.5954610724818182  0.01963293260394927          1.0000   
         H         H         1.0       0.5395040364787481  0.6111614905980768  0.03712664582916947          1.0000   
         H         H         1.0       0.5773319592584296  0.651535243800244   0.00048749541754755654       1.0000   
         H         H         1.0       0.559884007144741   0.6241510962661905  0.9608209498640474 1.0000   
         C         C         1.0       0.7117834442864229  0.2436475233042905  0.20864237219756632          1.0000   
         C         C         1.0       0.7267917391486496  0.22088156976867032           0.19898807197593382          1.0000   
         H         H         1.0       0.7315733670034075  0.2716584677470393  0.2182543775933512 1.0000   
         H         H         1.0       0.6896669603961899  0.23403546958003046           0.23232020666893072          1.0000   
         H         H         1.0       0.7492800531715511  0.22968909733872686           0.17541874377590005          1.0000   
         H         H         1.0       0.7394402798214361  0.22252662080788707           0.22415985376716532          1.0000   
         C         C         1.0       0.5638838441225698  0.32403237107025107           0.9948259209069611 1.0000   
         C         C         1.0       0.5488574195990195  0.3456705741082111  0.00919258607473794          1.0000   
         H         H         1.0       0.5566809336276614  0.3126146304291381  0.9651288437143387 1.0000   
         H         H         1.0       0.5469194308225169  0.3011718726055261  0.008862918160169153         1.0000   
         H         H         1.0       0.5465314105360288  0.3492869188741753  0.04073437209823405          1.0000   
         H         H         1.0       0.520175292690001   0.3287769522100042  0.0032837612618694667        1.0000   
         C         C         1.0       0.2755372970987544  0.632269044746614   0.9830886214273417 1.0000   
         C         C         1.0       0.6569684448123696  0.6779958207998972  0.9353630458094383 1.0000   
         H         H         1.0       0.30191953479438116           0.6557550699072479 0.973677233150789  1.0000   
         H         H         1.0       0.2720973227338772  0.64038406954126    0.013276836541140424         1.0000   
         H         H         1.0       0.6777932810397106  0.6768326235495971  0.9470978660497716 1.0000   
         H         H         1.0       0.6309037273377246  0.6603283293237135  0.950708220128203  1.0000   
         C         C         1.0       0.3719642207245912  0.44512054886603214           0.13032559346407435          1.0000   
         C         C         1.0       0.4010193897448796  0.4731405656050159  0.10639635183609841          1.0000   
         H         H         1.0       0.386015761206975   0.4418648769516614  0.15081506535240807          1.0000   
         H         H         1.0       0.3529799494876998  0.450108972331582   0.1469077520500095 1.0000   
         H         H         1.0       0.39927914215253596           0.46492355483013637          0.0760279826568615 1.0000   
         H         H         1.0       0.42833565557635345           0.47963237696636196          0.11233063853683078          1.0000   
         C         C         1.0       0.5385979280288402  0.25617777335012226           0.07175509829770754          1.0000   
         C         C         1.0       0.4961033236055809  0.23688785041883792           0.07089218970533406          1.0000   
         H         H         1.0       0.5492743571290766  0.27926452898331455           0.09308928224407542          1.0000   
         H         H         1.0       0.5516276565911609  0.269122842084346   0.046033229859774094         1.0000   
         H         H         1.0       0.4884399536614016  0.2553897545611271  0.07534323818142519          1.0000   
         H         H         1.0       0.4819587621819132  0.22641595664996364           0.09767076788512075          1.0000   
         C         C         1.0       0.35179085443032554           0.40434090479240103          0.44536753279694963          1.0000   
         C         C         1.0       0.36562226860152364           0.40430657551258053          0.4830610384279361 1.0000   
         H         H         1.0       0.3346448238637874  0.41311460584084825           0.45236515106511105          1.0000   
         H         H         1.0       0.332780336876545   0.37840220017174253           0.4312450612369503 1.0000   
         H         H         1.0       0.3837211381987483  0.39635779722505016           0.4696911150609774 1.0000   
         H         H         1.0       0.34268555673574175           0.38414303670969757          0.5005362891780237 1.0000   
         C         C         1.0       0.6197944144545784  0.33878833866298513           0.5812426077737698 1.0000   
         C         C         1.0       0.6185188204528924  0.3576146389221876  0.5529353531208593 1.0000   
         H         H         1.0       0.5909546205788021  0.3177011816209688  0.5883003903579546 1.0000   
         H         H         1.0       0.6306707420782119  0.35794614485436216           0.6090027368879674 1.0000   
         H         H         1.0       0.6475982509720204  0.38110564481393316           0.5491722292465997 1.0000   
         H         H         1.0       0.6000254922905094  0.365743948362582   0.5673181282589922 1.0000   
         C         C         1.0       0.30550125111350396           0.18162728783092563          0.46531595173536927          1.0000   
         C         C         1.0       0.30375515353174337           0.20783081536109918          0.4482523734554245 1.0000   
         H         H         1.0       0.3341418637073337  0.18796890761218313           0.45492870377930106          1.0000   
         H         H         1.0       0.28489563119662553           0.1549876693951733 0.4537677561329896 1.0000   
         H         H         1.0       0.32499973647490416           0.23220059722040426          0.4615371013386551 1.0000   
         H         H         1.0       0.27710207219124033           0.2061181906099583 0.458182121685426  1.0000   
         C         C         1.0       0.35724812516858867           0.5981401058109492 0.8400451477540335 1.0000   
         C         C         1.0       0.3849941816721289  0.6086481962419766  0.8039210885616094 1.0000   
         H         H         1.0       0.33758647599181285           0.5713467901237771 0.8371805287102637 1.0000   
         H         H         1.0       0.3387597152610157  0.6068618327380675  0.8430882360868666 1.0000   
         H         H         1.0       0.36898467059484064           0.6041292532644257 0.7796026526388158 1.0000   
         H         H         1.0       0.40689545750875644           0.6358947610809135 0.8091423483614395 1.0000   
         C         C         1.0       0.40568101189142997           0.342782222209303  0.8715317029897724 1.0000   
         C         C         1.0       0.3777375468750074  0.35345733417099506           0.8908869585593825 1.0000   
         H         H         1.0       0.8208684189503038  0.4100290414438258  0.8047732519975709 1.0000   
         H         H         1.0       0.4284105230252731  0.36375800678672393           0.8552343283691237 1.0000   
         H         H         1.0       0.3937316430636231  0.3813914924147393  0.8953113929773924 1.0000   
         H         H         1.0       0.35671257038313    0.3429923512727369  0.8697786644832985 1.0000   
         C         C         1.0       0.4512378874833609  0.4166134784630305  0.7812615355839333 1.0000   
         C         C         1.0       0.41451079070341607           0.41229337423966883          0.7816300094543702 1.0000   
         H         H         1.0       0.33178418103409224           0.47855350463553054          0.7867667461002227 1.0000   
         H         H         1.0       0.4437557566120151  0.39221895110140603           0.7842525306154505 1.0000   
         H         H         1.0       0.40069814198694437           0.4112380912914046 0.8108227841744716 1.0000   
         H         H         1.0       0.39737812309048426           0.38950899839400005          0.7613355583320424 1.0000   
         C         C         1.0       0.6026541032528573  0.17599831324825255           0.632148697789632  1.0000   
         C         C         1.0       0.6343631876519907  0.1797178336286429  0.6138471044719337 1.0000   
         C         C         1.0       0.6621209759174537  0.20908339208773685           0.5981486116788678 1.0000   
         C         C         1.0       0.6567945712065644  0.23409350514051908           0.599689771863282  1.0000   
         C         C         1.0       0.623117212667713   0.22850993037716427           0.6156997415642568 1.0000   
         C         C         1.0       0.5957082580990715  0.1996163321840967  0.6320406810860049 1.0000   
         H         H         1.0       0.6384719317289422  0.1599065867322751  0.6146592041390454 1.0000   
         H         H         1.0       0.6898138679386993  0.2153794525569528  0.5866032848638358 1.0000   
         H         H         1.0       0.6142130653434748  0.24463850530587883           0.615987517427744  1.0000   
         H         H         1.0       0.5709967059528783  0.19924206990182736           0.6488986519730292 1.0000   
         C         C         1.0       0.651058962779323   0.27867553747125395           0.5542480117382322 1.0000   
         C         C         1.0       0.6814004408006171  0.29574959534348233           0.5765896907610886 1.0000   
         C         C         1.0       0.4431987806878634  0.5918530699433548  0.591950803030939  1.0000   
         C         C         1.0       0.4228252846284676  0.6046397744528276  0.5925197489652351 1.0000   
         C         C         1.0       0.40410291131744935           0.5964373131947206 0.5597540483967444 1.0000   
         C         C         1.0       0.40688729168848103           0.577123908613615  0.5274654330785693 1.0000   
         C         C         1.0       0.6917000832116265  0.27339726798748276           0.590883002928802  1.0000   
         C         C         1.0       0.7224522471281044  0.274500786046429   0.5572443004740052 1.0000   
         C         C         1.0       0.23815122696104002           0.5536453290008855 0.5501309302325389 1.0000   
         C         C         1.0       0.26051506092902144           0.5735407982484093 0.5223239095649329 1.0000   
         C         C         1.0       0.252459953699548   0.5601519879585115  0.48446462580210586          1.0000   
         C         C         1.0       0.2639423550056126  0.16146243891789425           0.5272593345284758 1.0000   
         C         C         1.0       0.7111033040506158  0.25153447503710935           0.5240447308539871 1.0000   
         C         C         1.0       0.6857243800735668  0.2935458408375755  0.662084365124637  1.0000   
         C         C         1.0       0.6845348104151638  0.2907054116437029  0.699138302549184  1.0000   
         C         C         1.0       0.7014701571603009  0.2779657212013651  0.7093887079617592 1.0000   
         C         C         1.0       0.7258312628791118  0.2750471005875572  0.6819997207775573 1.0000   
         C         C         1.0       0.729478036949867   0.27962702193060585           0.6442199543826675 1.0000   
         C         C         1.0       0.7067723945157521  0.2863964679704436  0.6337957161443498 1.0000   
         C         C         1.0       0.6910578155307437  0.26294376057460367           0.7503917864088474 1.0000   
         C         C         1.0       0.5733810539547208  0.21811617609531764           0.7877197190016527 1.0000   
         C         C         1.0       0.5984741107177383  0.22937435781758486           0.8148822383710752 1.0000   
         C         C         1.0       0.633216717594411   0.24037644479279408           0.8032586235136631 1.0000   
         C         C         1.0       0.6467057639633469  0.24365263403364246           0.7656053770050266 1.0000   
         C         C         1.0       0.6201825744153964  0.22686407084902616           0.7383207322832581 1.0000   
         C         C         1.0       0.5830211300664645  0.21388301001387844           0.7490413825577832 1.0000   
         C         C         1.0       0.7187440978376229  0.2969944893391876  0.7761420741576075 1.0000   
         C         C         1.0       0.396245275201973   0.26996512748902357           0.7934845642837695 1.0000   
         C         C         1.0       0.3110963069168142  0.6083694195973774  0.7275843963398902 1.0000   
         C         C         1.0       0.29892527857360274           0.627908998783929  0.7447249639413953 1.0000   
         C         C         1.0       0.5612310668914696  0.6140777884611293  0.7259109113553316 1.0000   
         C         C         1.0       0.7089687283768145  0.31701348573763766           0.7997520064775001 1.0000   
         C         C         1.0       0.7111533938745824  0.2309270894919897  0.7736565580700753 1.0000   
         C         C         1.0       0.7193334533932424  0.20771785253013353           0.7688993431085839 1.0000   
         C         C         1.0       0.7122730858192873  0.18565951356167987           0.7355481423213663 1.0000   
         C         C         1.0       0.6903789208680912  0.18244278120755286           0.7096207434783202 1.0000   
         C         C         1.0       0.6817366798892787  0.20548533756531695           0.7153595819537368 1.0000   
         C         C         1.0       0.6946219991983298  0.23174901287549665           0.74482919027376   1.0000   
         H         H         1.0       0.6395423958811224  0.251662919971507   0.5413319663835472 1.0000   
         H         H         1.0       0.4580771977568611  0.5987342178207257  0.6164151959823684 1.0000   
         H         H         1.0       0.42452776308718915           0.6224020441464756 0.6168808327001764 1.0000   
         H         H         1.0       0.3904810912754693  0.5681529289696609  0.5021011619046263 1.0000   
         H         H         1.0       0.24575318323160616           0.5642690182513043 0.5784678203534341 1.0000   
         H         H         1.0       0.2816079868536254  0.5998030540249775  0.5325377757842733 1.0000   
         H         H         1.0       0.23983259226491438           0.14293752411022154          0.5099484867386538 1.0000   
         H         H         1.0       0.6803496342294317  0.2343910731961265  0.5200176979259037 1.0000   
         H         H         1.0       0.6679877186590472  0.2992650463243818  0.6529568342293738 1.0000   
         H         H         1.0       0.6671567446047978  0.29671397981472714           0.7183906589548491 1.0000   
         H         H         1.0       0.3672643962027999  0.2030087853681184  0.6891403529831357 1.0000   
         H         H         1.0       0.3387690555985308  0.19434811067801405           0.631811419813128  1.0000   
         H         H         1.0       0.5913354013692625  0.23275531515908154           0.8444506373665864 1.0000   
         H         H         1.0       0.6493910973595686  0.2549957542035608  0.8291323308450192 1.0000   
         H         H         1.0       0.6280314007025025  0.22606288607957303           0.7075302745561536 1.0000   
         H         H         1.0       0.5681076754385673  0.2083734951279952  0.7241384778852321 1.0000   
         H         H         1.0       0.41554618791625253           0.2676726512510599 0.775271920336715  1.0000   
         H         H         1.0       0.33940691172960563           0.61831794256437   0.716821499852545  1.0000   
         H         H         1.0       0.5787629432919387  0.6364216311244553  0.7099743646865707 1.0000   
         H         H         1.0       0.6797454840258517  0.3089875049073163  0.8010955989684031 1.0000   
         H         H         1.0       0.7164001495149486  0.2466130941026783  0.8026145683265097 1.0000   
         H         H         1.0       0.7351852854618944  0.21209426760979833           0.7916533743644724 1.0000   
         H         H         1.0       0.6844128954688464  0.16476170023810588           0.6842680722536656 1.0000   
         H         H         1.0       0.6651895549797215  0.20414105573032915           0.6959197218947488 1.0000   
         C         C         1.0       0.7632531715558315  0.8758990306874026  0.019345397180025925         1.0000   
         C         C         1.0       0.7647825048424398  0.8686046806464511  0.9793042685258992 1.0000   
         C         C         1.0       0.7339285585729528  0.8486830699094268  0.958553124544921  1.0000   
         C         C         1.0       0.6990326456962642  0.8328007590816029  0.9783742564986188 1.0000   
         C         C         1.0       0.6965437073856541  0.8396751971986924  0.017463083382616373         1.0000   
         C         C         1.0       0.7272900837334797  0.8619778716501301  0.03720513563740102          1.0000   
         H         H         1.0       0.7924661426452981  0.8805708356613653  0.9636133332400993 1.0000   
         H         H         1.0       0.30180933699099677           0.7789769183223487 0.9608155518292777 1.0000   
         H         H         1.0       0.6700721790703087  0.8271854422431354  0.035297158293409625         1.0000   
         H         H         1.0       0.721382357556014   0.8641054919786941  0.06785450805001303          1.0000   
         C         C         1.0       0.6294503424689366  0.8324688013409096  0.979925711070354  1.0000   
         C         C         1.0       0.6271068827396185  0.8024583117103635  0.9783746448663494 1.0000   
         C         C         1.0       0.5935569758728498  0.7758602306315744  0.9936395118225262 1.0000   
         C         C         1.0       0.5653123114615856  0.779673575635322   0.01031156566625513          1.0000   
         C         C         1.0       0.5687444589321722  0.8096032382719085  0.011781419939457694         1.0000   
         C         C         1.0       0.6008604253378503  0.8361895873229286  0.9964494460539232 1.0000   
         C         C         1.0       0.6623090134333812  0.8022827385376654  0.9561302775200885 1.0000   
         C         C         1.0       0.6618482416612826  0.7694083445240439  0.9529464232258179 1.0000   
         C         C         1.0       0.6858925253804081  0.7654449785102214  0.925632976265112  1.0000   
         C         C         1.0       0.2727471852905935  0.6818114302766242  0.9461645799357679 1.0000   
         C         C         1.0       0.6954077347487886  0.18246923999900844           0.03248888605258138          1.0000   
         C         C         1.0       0.6589059845449612  0.16957706654204663           0.03566013973292992          1.0000   
         C         C         1.0       0.6441993842281514  0.7474936812040641  0.9793973776668504 1.0000   
         C         C         1.0       0.27475713406150915           0.7315135147195091 0.8605957003923119 1.0000   
         C         C         1.0       0.2963203204929214  0.7451065845746453  0.8302069766044661 1.0000   
         C         C         1.0       0.32143434322450287           0.7805172372091006 0.8318295520517633 1.0000   
         C         C         1.0       0.3123761483236102  0.7996731913518478  0.860295687980262  1.0000   
         C         C         1.0       0.677039544937413   0.8298714106283691  0.8920644193170076 1.0000   
         C         C         1.0       0.6553136683695374  0.8008576744499776  0.9108259517849714 1.0000   
         C         C         1.0       0.35504432158025684           0.7990713527207762 0.8017568188660406 1.0000   
         C         C         1.0       0.3810648296568426  0.7252271880549395  0.7635715817880461 1.0000   
         C         C         1.0       0.39206325868710556           0.7471915573608056 0.7375277027392442 1.0000   
         C         C         1.0       0.385290116249798   0.7719438178280081  0.7492600698572082 1.0000   
         C         C         1.0       0.3723907170627927  0.7770196920652777  0.7882657375854302 1.0000   
         C         C         1.0       0.3723753351924536  0.7608552188827008  0.8146328101645282 1.0000   
         C         C         1.0       0.37727531263693304           0.7359495488293594 0.8037524645117965 1.0000   
         C         C         1.0       0.3914696565515544  0.834080494797639   0.8191229740417549 1.0000   
         C         C         1.0       0.398882638802447   0.8383499633070124  0.8577538999383819 1.0000   
         C         C         1.0       0.42827565460810507           0.8679108534835687 0.8743500996872434 1.0000   
         C         C         1.0       0.4510642243443312  0.8944814422064417  0.8520762060090954 1.0000   
         C         C         1.0       0.442933959299581   0.8904893784697168  0.8145044839717206 1.0000   
         C         C         1.0       0.41608332862965824           0.8591040793433457 0.7981288929763052 1.0000   
         C         C         1.0       0.33386088595082114           0.8268577350298407 0.769246461281746  1.0000   
         C         C         1.0       0.3163230286437744  0.826951453299733   0.743438050160417  1.0000   
         C         C         1.0       0.5735612413749046  0.7891050302015225  0.7599707734151774 1.0000   
         C         C         1.0       0.5701958559457175  0.760309970152177   0.762522032440901  1.0000   
         C         C         1.0       0.5989376893696478  0.7611379589925844  0.7695414482933749 1.0000   
         C         C         1.0       0.3358832014908648  0.7998321574737928  0.7689569333555935 1.0000   
         H         H         1.0       0.6541360988080509  0.8524831234984316  0.9656001965431968 1.0000   
         H         H         1.0       0.5866820222146691  0.7502713448534108  0.9936058143248718 1.0000   
         H         H         1.0       0.5417940406224592  0.7597383556325403  0.024121546485475154         1.0000   
         H         H         1.0       0.60356254505647    0.8592435339463395  0.9966529451690604 1.0000   
         H         H         1.0       0.2989255249956021  0.733439552701762   0.9285326864791068 1.0000   
         H         H         1.0       0.29622194461463996           0.6806425687018446 0.9395962618679488 1.0000   
         H         H         1.0       0.6379088744647647  0.14182180675212175           0.03804228603425641          1.0000   
         H         H         1.0       0.6306274127491355  0.7526532907079593  0.005162138928622717         1.0000   
         H         H         1.0       0.6125513438298602  0.7516819840735108  0.90577848742729   1.0000   
         H         H         1.0       0.2976596686897621  0.7276661809776033  0.8071365983190316 1.0000   
         H         H         1.0       0.324045013798105   0.8265284357606117  0.8587475267162821 1.0000   
         H         H         1.0       0.6970739223302278  0.8552429259765358  0.9063374676613619 1.0000   
         H         H         1.0       0.3949310783852765  0.739990947878249   0.7081220070333601 1.0000   
         H         H         1.0       0.3878588431176913  0.7828368476579837  0.7248518424464299 1.0000   
         H         H         1.0       0.3668173216606999  0.7632644994168735  0.8455859967623781 1.0000   
         H         H         1.0       0.3700879970298028  0.7199919665816067  0.8255820182447676 1.0000   
         H         H         1.0       0.37668734183877217           0.8161891366423003 0.8737744257643207 1.0000   
         H         H         1.0       0.43105777477108764           0.8705405915417    0.9050954526422951 1.0000   
         H         H         1.0       0.4586894631949139  0.9127746415391096  0.7982471832988931 1.0000   
         H         H         1.0       0.40993487883639185           0.8576564347892026 0.7678833818459283 1.0000   
         H         H         1.0       0.34384744265076367           0.8469303465578315 0.7928344811890891 1.0000   
         H         H         1.0       0.3200880973891685  0.8503581834715435  0.7421545364963779 1.0000   
         H         H         1.0       0.5441607101080406  0.7367264612903912  0.7538901668192163 1.0000   
         H         H         1.0       0.5939199308215679  0.7383720910590496  0.7760045968066643 1.0000   
         C         C         1.0       0.6973892854718691  0.11856267938489884           0.7552676817975668 1.0000   
         C         C         1.0       0.3636869782391104  0.07795529331709061           0.8309319624388922 1.0000   
         C         C         1.0       0.33203754624885373           0.05232230321031306          0.8500226832316886 1.0000   
         C         C         1.0       0.6703008884290225  0.09080432863633181           0.8239052001204029 1.0000   
         C         C         1.0       0.6469810874624484  0.08657090339628959           0.7996667080498356 1.0000   
         C         C         1.0       0.6596490892237191  0.10168467275204396           0.7672466184872377 1.0000   
         H         H         1.0       0.38941564067590734           0.09231082726620565          0.8444437419393925 1.0000   
         H         H         1.0       0.3335010343470536  0.04868211138352274           0.8793353383611948 1.0000   
         H         H         1.0       0.6168088690115826  0.071359082414445   0.808035088759021  1.0000   
         H         H         1.0       0.6403859991862549  0.09781450846820627           0.7497548326013818 1.0000   
         C         C         1.0       0.6064537642177638  0.09274797146100155           0.8850663849444469 1.0000   
         C         C         1.0       0.6134440929162805  0.0688963708677015  0.8829705455407977 1.0000   
         C         C         1.0       0.5882852773844964  0.041804730073322194         0.905197235507095  1.0000   
         C         C         1.0       0.5635571188947511  0.044297942083963315         0.9321257024912352 1.0000   
         C         C         1.0       0.5617417231636211  0.07202071370736407           0.9348801500205155 1.0000   
         C         C         1.0       0.5790769230915596  0.0937659396224162  0.9081353585827263 1.0000   
         C         C         1.0       0.6518539326250739  0.0728678359737489  0.8635800711258533 1.0000   
         C         C         1.0       0.2581640010378081  0.020070485376657787         0.9050331665894108 1.0000   
         C         C         1.0       0.22930068329754902           0.9955619806914845 0.9288143605734301 1.0000   
         C         C         1.0       0.21684014452641742           0.006060811582559555         0.9642447133933405 1.0000   
         C         C         1.0       0.23539903439503274           0.04072971502290357          0.9780202672192343 1.0000   
         C         C         1.0       0.26702878145060954           0.06498700629101894          0.9572287379689646 1.0000   
         C         C         1.0       0.6966334692589832  0.13140852175366602           0.905354771058491  1.0000   
         C         C         1.0       0.6196115623327952  0.011331665600803564         0.8315326305316775 1.0000   
         C         C         1.0       0.6138426120002584  0.9798405438355117  0.8264395773576411 1.0000   
         C         C         1.0       0.24110125508901167           0.9091982709537755 0.8388921086948399 1.0000   
         C         C         1.0       0.2608630414923382  0.9334305164488722  0.8689056713504876 1.0000   
         C         C         1.0       0.27078308728947825           0.966971650266071  0.8739666050241311 1.0000   
         C         C         1.0       0.6512953697439314  0.03972918840088724           0.8487601659633368 1.0000   
         C         C         1.0       0.21597660654191567           0.868189701220228  0.8384609125712872 1.0000   
         C         C         1.0       0.5879758787732036  0.9557920279429837  0.9658681361798419 1.0000   
         C         C         1.0       0.564148738188368   0.9434198061509632  0.9373940767169334 1.0000   
         C         C         1.0       0.5746499124022955  0.9348819146665511  0.8999045138384789 1.0000   
         C         C         1.0       0.17575808079030503           0.8611366172954703 0.8564133063458853 1.0000   
         C         C         1.0       0.17322040535027677           0.8766435151522565 0.8918249978703918 1.0000   
         C         C         1.0       0.14017256135272238           0.8709060448329242 0.9082789154798843 1.0000   
         C         C         1.0       0.2319916400835159  0.858960609660514   0.8672688966001285 1.0000   
         C         C         1.0       0.26903491137759844           0.8707364741665901 0.8667043843739619 1.0000   
         C         C         1.0       0.28120355284863    0.8657048859586783  0.8966057489778477 1.0000   
         C         C         1.0       0.2555580767710034  0.8467131866791184  0.9250383927206469 1.0000   
         C         C         1.0       0.21848624704189384           0.8280801629302773 0.9201686893735521 1.0000   
         C         C         1.0       0.20725365713777993           0.8357950067985344 0.8942244336420808 1.0000   
         C         C         1.0       0.5628399900927739  0.8750407636753336  0.8304592231806441 1.0000   
         C         C         1.0       0.5453365171287807  0.8463851621031632  0.8042255230829506 1.0000   
         C         C         1.0       0.5552662858560458  0.8466356986056184  0.7651178378688114 1.0000   
         C         C         1.0       0.5830501348767234  0.8776193469819925  0.7518607941869668 1.0000   
         C         C         1.0       0.5996442141337855  0.9062756225803819  0.77887287651709   1.0000   
         C         C         1.0       0.5939852554074214  0.905167445696622   0.8181636644561734 1.0000   
         H         H         1.0       0.6251653941693438  0.11565280499106856           0.8694633140116185 1.0000   
         H         H         1.0       0.5930262497915327  0.02247684275040651           0.901955415531796  1.0000   
         H         H         1.0       0.5544347900530372  0.03069463394358718           0.9565958240633876 1.0000   
         H         H         1.0       0.5739201067672485  0.11193174935447958           0.9026706510121639 1.0000   
         H         H         1.0       0.20801271635788277           0.9677637954458786 0.9179759873388794 1.0000   
         H         H         1.0       0.19393965845542943           0.9905739243514469 0.983395133425453  1.0000   
         H         H         1.0       0.276783244628606   0.09073185571600062           0.9645547628332359 1.0000   
         H         H         1.0       0.7009372267794152  0.1434933495675128  0.8811416730540168 1.0000   
         H         H         1.0       0.5974491680570927  0.014116436329889126         0.8282236487978231 1.0000   
         H         H         1.0       0.5865009664825528  0.9561398845598101  0.8201974011570434 1.0000   
         H         H         1.0       0.26439260587026886           0.9251359693999789 0.8927741116769955 1.0000   
         H         H         1.0       0.28683875471919384           0.9864399521421283 0.8970628303773192 1.0000   
         H         H         1.0       0.5410251077048651  0.9460467691977413  0.9420208707064816 1.0000   
         H         H         1.0       0.5580965546997291  0.9280972460190633  0.8776187023188393 1.0000   
         H         H         1.0       0.19695493868152275           0.8943680800410441 0.9084847235725511 1.0000   
         H         H         1.0       0.14245493701350234           0.8851367513232641 0.9360843582278529 1.0000   
         H         H         1.0       0.28962026836255644           0.8903350189065129 0.8495266496655208 1.0000   
         H         H         1.0       0.31120619210551487           0.8833283143504884 0.8989959740880736 1.0000   
         H         H         1.0       0.1942948559686982  0.8091432167116754  0.9359951398802007 1.0000   
         H         H         1.0       0.17863971507915388           0.8245892570124872 0.8936203437484095 1.0000   
         H         H         1.0       0.5576615954433235  0.8721110381692807  0.8589817774645379 1.0000   
         H         H         1.0       0.5246514829340727  0.8219294316641291  0.8164493175353197 1.0000   
         H         H         1.0       0.5946857938551009  0.8803502203901654  0.7223256563466237 1.0000   
         H         H         1.0       0.26743593615218186           0.8894581060895346 0.7712826493799473 1.0000   
         C         C         1.0       0.4448314730469149  0.073698284203503   0.0935177279877566 1.0000   
         C         C         1.0       0.46568164714663385           0.06321251389415905          0.06986285076819443          1.0000   
         C         C         1.0       0.45292488237720474           0.042980946175599666         0.035383057518871164         1.0000   
         C         C         1.0       0.41774678460911957           0.027799361238505016         0.02613254545222321          1.0000   
         C         C         1.0       0.39597268728449514           0.03736479697375339          0.05207003026967838          1.0000   
         C         C         1.0       0.4100074417301886  0.06047397071918437           0.08552432518150876          1.0000   
         H         H         1.0       0.49279197532759805           0.07240322572114954          0.07596102351912837          1.0000   
         H         H         1.0       0.472033488145277   0.04279436434230388           0.012540469965262258         1.0000   
         H         H         1.0       0.3682718667109899  0.02888354860937592           0.0467942899017284 1.0000   
         H         H         1.0       0.3937044532640129  0.06942252098301571           0.10167067380226902          1.0000   
         C         C         1.0       0.34461489221895125           0.9532468345015498 0.02542498493321399          1.0000   
         C         C         1.0       0.35503564976201174           0.9721173863520547 0.9950853152449347 1.0000   
         C         C         1.0       0.33000250224895167           0.9595554932852464 0.9686013027855714 1.0000   
         C         C         1.0       0.29759101868117593           0.9273633281941465 0.9694563123053388 1.0000   
         C         C         1.0       0.2889818698507306  0.9082555921485058  0.9993681579010535 1.0000   
         C         C         1.0       0.31113875931564866           0.9218526967505124 0.027999361774177167         1.0000   
         C         C         1.0       0.3990011632571262  0.0013750979382001205        0.9880209222872255 1.0000   
         C         C         1.0       0.4144332022626531  0.9777519704081433  0.9688767084476579 1.0000   
         C         C         1.0       0.41372112145014883           0.9670757302471523 0.930687705127429  1.0000   
         C         C         1.0       0.4336063079449849  0.9551386325597713  0.912542578988095  1.0000   
         C         C         1.0       0.4565102482740873  0.9545389964507247  0.9317009308268663 1.0000   
         C         C         1.0       0.45504260512736705           0.9620101837523418 0.9710198634473219 1.0000   
         C         C         1.0       0.4312099164501118  0.9708611573598859  0.9892986897115318 1.0000   
         C         C         1.0       0.3902387239719485  0.045191824829759586         0.9683778698098939 1.0000   
         C         C         1.0       0.40594079596436045           0.07590548764814242          0.9584421857005876 1.0000   
         C         C         1.0       0.44444908047674847           0.09454936283561444          0.9429033458262079 1.0000   
         C         C         1.0       0.4565296801206411  0.07419854304032114           0.9279442405669946 1.0000   
         C         C         1.0       0.44151895239491123           0.04393672610600485          0.9403258608034297 1.0000   
         C         C         1.0       0.40873727676675253           0.02973965211634244          0.9615847490439996 1.0000   
         C         C         1.0       0.47183345642777436           0.13557394429077152          0.9466262902067744 1.0000   
         C         C         1.0       0.4942540262748994  0.16080385927091045           0.8309070123913607 1.0000   
         C         C         1.0       0.4641913827876307  0.15747643514778709           0.8535422839194868 1.0000   
         C         C         1.0       0.45696835385732465           0.14838626615295714          0.8889948537167461 1.0000   
         C         C         1.0       0.4791651821524692  0.14221449087590865           0.9025659170541364 1.0000   
         C         C         1.0       0.5060227122597654  0.14040502040418978           0.8753487922845561 1.0000   
         C         C         1.0       0.512209582970051   0.14848088090792477           0.8395654597710509 1.0000   
         C         C         1.0       0.5064056521857934  0.14665928926209548           0.9678840249447522 1.0000   
         C         C         1.0       0.5439451103726181  0.163622590547013   0.9514096444449981 1.0000   
         C         C         1.0       0.5680329403459072  0.15803305830206837           0.9607308989240738 1.0000   
         C         C         1.0       0.559106520465268   0.14081589743656608           0.9904172590508648 1.0000   
         C         C         1.0       0.5257704128626988  0.1306539134451985  0.013581948754728401         1.0000   
         C         C         1.0       0.5001478900916462  0.13221883702053394           0.0006078257164834344        1.0000   
         C         C         1.0       0.4849906350607799  0.19283476680447165           0.9702151739481332 1.0000   
         C         C         1.0       0.4931011867598197  0.21759174039847906           0.000628755487307453         1.0000   
         C         C         1.0       0.48030082314891476           0.20880129738233189          0.03691618670412011          1.0000   
         C         C         1.0       0.45319557661651066           0.17560109645235467          0.04121426088389413          1.0000   
         C         C         1.0       0.4444892410222974  0.15136696052253296           0.010700847812244563         1.0000   
         C         C         1.0       0.4625618830090031  0.15941305172134568           0.974728545079842  1.0000   
         H         H         1.0       0.3628927622351832  0.9620939565225543  0.04599287572779209          1.0000   
         H         H         1.0       0.33568988532108457           0.9715266378124605 0.9435832319123458 1.0000   
         H         H         1.0       0.2796086086095777  0.9174564398685748  0.9462018675142753 1.0000   
         H         H         1.0       0.30682487909337025           0.9066787962722366 0.048409055046014116         1.0000   
         H         H         1.0       0.4010065647787337  0.9723125047765804  0.9144130894744368 1.0000   
         H         H         1.0       0.43426876456656444           0.9494073504199488 0.8818989710851677 1.0000   
         H         H         1.0       0.4719988584791875  0.9614759220104547  0.9892565395290445 1.0000   
         H         H         1.0       0.4303821483713892  0.9788233278145476  0.019238109538615822         1.0000   
         H         H         1.0       0.36107705308783483           0.034825789138523966         0.9792041311530454 1.0000   
         H         H         1.0       0.3949316639393031  0.09070802450251869           0.9663228506445962 1.0000   
         H         H         1.0       0.4825328377337573  0.08390115407108434           0.9111733365285728 1.0000   
         H         H         1.0       0.4577540224759565  0.035123353176913286         0.9327584185485885 1.0000   
         H         H         1.0       0.4459895914469723  0.16246352016629784           0.8462975518712655 1.0000   
         H         H         1.0       0.43478058792997004           0.14608720481962423          0.9064132334885517 1.0000   
         H         H         1.0       0.5194326566950503  0.1295571675087701  0.8795200302775059 1.0000   
         H         H         1.0       0.5294214114484614  0.14439737932604002           0.8169062331865076 1.0000   
         H         H         1.0       0.5544981098907081  0.17802003276094625           0.9279848002227611 1.0000   
         H         H         1.0       0.5932759598740207  0.1680664426438021  0.9433967647656657 1.0000   
         H         H         1.0       0.5168587067889295  0.1165127608220069  0.03582209218142429          1.0000   
         H         H         1.0       0.47218923529872026           0.11631017804825672          0.013057517772203875         1.0000   
         H         H         1.0       0.5019355871083152  0.1999102503090291  0.943507747090473  1.0000   
         H         H         1.0       0.5081146675463275  0.24340730439188607           0.9931645773698664 1.0000   
         H         H         1.0       0.44267734156905064           0.168240514234981  0.07019226479201213          1.0000   
         H         H         1.0       0.4276252897149751  0.1255991146116433  0.01606940489317954          1.0000   
         C         C         1.0       0.25809716290514817           0.9838273459415738 0.20462633153332033          1.0000   
         C         C         1.0       0.23475171398411815           0.9935652741269084 0.2037225086394222 1.0000   
         C         C         1.0       0.23775093383531898           0.019903053966307427         0.2301288074235044 1.0000   
         C         C         1.0       0.26208643697911177           0.036102862652805934         0.2593883263667265 1.0000   
         C         C         1.0       0.28797573235245066           0.027588059609487514         0.25690799320612256          1.0000   
         C         C         1.0       0.2845238215552214  0.0020628760793217626        0.23230095618410654          1.0000   
         H         H         1.0       0.21691069139603328           0.9837886437209399 0.17946752265078456          1.0000   
         H         H         1.0       0.21561438241802705           0.02196253975611584          0.2289693338284206 1.0000   
         H         H         1.0       0.3074991261989877  0.040029525407024646         0.2790004142747394 1.0000   
         H         H         1.0       0.2989513628386856  0.9923670195189752  0.23819912334110896          1.0000   
         C         C         1.0       0.27170586824992726           0.04562369635492569          0.3485067451114718 1.0000   
         C         C         1.0       0.2746282465253714  0.07107271676075211           0.3356536934780591 1.0000   
         C         C         1.0       0.2870648040640867  0.10174066345539501           0.36111277058525154          1.0000   
         C         C         1.0       0.29161472680455114           0.10296381447874325          0.3987115178226723 1.0000   
         C         C         1.0       0.28899238268900773           0.07650982939191442          0.41168684361256974          1.0000   
         C         C         1.0       0.27990771049027263           0.047975066686065215         0.3851927365574337 1.0000   
         C         C         1.0       0.25992676108888396           0.06362073386663503          0.29332154376192215          1.0000   
         C         C         1.0       0.21882067160261365           0.05075183752091683          0.3102480138371699 1.0000   
         C         C         1.0       0.20909402989603795           0.07330175271724237          0.3249963386543573 1.0000   
         C         C         1.0       0.17335576614961093           0.06270704196479815          0.33778380540139297          1.0000   
         C         C         1.0       0.6686965345921727  0.16084310461810092           0.36897281686477   1.0000   
         C         C         1.0       0.6515722942795767  0.12697097401929858           0.37141343444391295          1.0000   
         C         C         1.0       0.19274032881110695           0.017029409829529607         0.3162073981848072 1.0000   
         C         C         1.0       0.3169443439202244  0.11983637169648409           0.2758277972052817 1.0000   
         C         C         1.0       0.32538171389949555           0.7235518196952054 0.39385746825911544          1.0000   
         C         C         1.0       0.3393343577880199  0.7327274425316115  0.4300643693464525 1.0000   
         C         C         1.0       0.3143312872741732  0.7283823570700483  0.46273255662767854          1.0000   
         C         C         1.0       0.27618371834608485           0.7092735622354837 0.4595455737558782 1.0000   
         C         C         1.0       0.2799676309770301  0.09596895176993159           0.271070076580325  1.0000   
         C         C         1.0       0.37871983891618555           0.739787199555776  0.43343328100740225          1.0000   
         C         C         1.0       0.3324797935110355  0.632743079671208   0.43792178060656994          1.0000   
         C         C         1.0       0.33972691162372387           0.6443853984756519 0.40311399343267507          1.0000   
         C         C         1.0       0.35432586276215616           0.6784493875737662 0.4018112222902637 1.0000   
         C         C         1.0       0.3650582083002262  0.7021331660977156  0.4354766494523445 1.0000   
         C         C         1.0       0.354859542001509   0.6891999338904231  0.46954160459982647          1.0000   
         C         C         1.0       0.33914307012450084           0.655250829255255  0.47090008650682824          1.0000   
         C         C         1.0       0.40271348287596076           0.7656586498746211 0.4695926094176968 1.0000   
         C         C         1.0       0.39848436340723264           0.7917225276282079 0.4872997950645291 1.0000   
         C         C         1.0       0.4125937085459987  0.8091140161072292  0.5222455509791079 1.0000   
         C         C         1.0       0.4367305911918668  0.8069554720161686  0.5359244776236155 1.0000   
         C         C         1.0       0.44550811560150494           0.7848037230444396 0.5161368847463246 1.0000   
         C         C         1.0       0.4287387794120282  0.7649517019568038  0.48312138168477203          1.0000   
         C         C         1.0       0.4326461221142038  0.7511913017247783  0.38307014619710006          1.0000   
         C         C         1.0       0.452283731628725   0.7636379368102618  0.3487956973173305 1.0000   
         C         C         1.0       0.45134903614907707           0.7865567559815617 0.33391577706520653          1.0000   
         C         C         1.0       0.4302188571488479  0.7980089105763996  0.35584059112513894          1.0000   
         C         C         1.0       0.40893142684086287           0.7850558115373615 0.38898288690558   1.0000   
         C         C         1.0       0.40807993725483416           0.7590903021931538 0.40055715482969584          1.0000   
         H         H         1.0       0.26161342919483177           0.02195336723596153          0.3320119703431684 1.0000   
         H         H         1.0       0.2959893573765863  0.12498602300293449           0.35167672820602086          1.0000   
         H         H         1.0       0.30050896298381463           0.1261097133173672 0.4175091871969387 1.0000   
         H         H         1.0       0.2746793673661195  0.025618279453167414         0.3933956145853839 1.0000   
         H         H         1.0       0.22896017604975188           0.10035776548844644          0.3245205743533655 1.0000   
         H         H         1.0       0.167668802266442   0.08217296269599483           0.3460336955622651 1.0000   
         H         H         1.0       0.6214639206540089  0.11075854297383136           0.3747390667261045 1.0000   
         H         H         1.0       0.19979191909571362           0.9989497574808391 0.3090900666555221 1.0000   
         H         H         1.0       0.33519729161420253           0.11473315118217364          0.2821939667719526 1.0000   
         H         H         1.0       0.3598634205538623  0.1707077853017709  0.2841166237620578 1.0000   
         H         H         1.0       0.32077737634175413           0.734310746735597  0.4929685450004371 1.0000   
         H         H         1.0       0.2563010174611114  0.7047300314833892  0.48559663334864256          1.0000   
         H         H         1.0       0.33292858321934893           0.6263446492636068 0.3768450198441663 1.0000   
         H         H         1.0       0.3632069726460119  0.6869913807053172  0.37455616036440675          1.0000   
         H         H         1.0       0.35801156081349045           0.7058656144443239 0.4963764559979249 1.0000   
         H         H         1.0       0.33261675149649045           0.6478531054332768 0.49796957359598243          1.0000   
         H         H         1.0       0.37790486214034363           0.79279447149637   0.4787229851663896 1.0000   
         H         H         1.0       0.40602013864980385           0.826908158131605  0.5365609767969802 1.0000   
         H         H         1.0       0.46596690306682503           0.7843806226499063 0.5267889126414016 1.0000   
         H         H         1.0       0.43244336140273176           0.744788284017331  0.4693657023518873 1.0000   
         H         H         1.0       0.4331987518211894  0.7336014594273765  0.3963968465319357 1.0000   
         H         H         1.0       0.46791255052051817           0.7541723671281707 0.33429369398863135          1.0000   
         H         H         1.0       0.43218138068118633           0.8189203089856274 0.3467966335264033 1.0000   
         H         H         1.0       0.39105187501351135           0.7929616393162513 0.4038983515601119 1.0000   
         C         C         1.0       0.4465093829845391  0.8852730954627117  0.3454726211880925 1.0000   
         C         C         1.0       0.43029159801247796           0.8780061597297648 0.38218350881470553          1.0000   
         C         C         1.0       0.453728715696934   0.8935517246049618  0.41276641933444114          1.0000   
         C         C         1.0       0.4919473737257777  0.9167579702802972  0.40698090241651647          1.0000   
         C         C         1.0       0.5061823087561628  0.9213065497106482  0.3698336156413944 1.0000   
         C         C         1.0       0.4843867213247253  0.9080646730732087  0.3391747363818308 1.0000   
         H         H         1.0       0.400819581120367   0.8639507418015858  0.38831288944474046          1.0000   
         H         H         1.0       0.4426663820878682  0.8909631622594203  0.44316833425218666          1.0000   
         H         H         1.0       0.5346340850564881  0.9390959155492864  0.3636948293171961 1.0000   
         H         H         1.0       0.49434351334483845           0.915466410057091  0.31263431829482397          1.0000   
         C         C         1.0       0.5764450659402773  0.9412667968384076  0.4091577857876406 1.0000   
         C         C         1.0       0.5605377726670198  0.9549731193155446  0.43722456185698116          1.0000   
         C         C         1.0       0.583322222832421   0.9809266388662754  0.46502100244030087          1.0000   
         C         C         1.0       0.6208749086614226  0.9954677235656729  0.4628835728457074 1.0000   
         C         C         1.0       0.6346047281779301  0.9804673586293667  0.43512702477280873          1.0000   
         C         C         1.0       0.6123633632349249  0.9517449120910821  0.4087448217390418 1.0000   
         C         C         1.0       0.5170811430740656  0.9401661154508055  0.44282771326450754          1.0000   
         C         C         1.0       0.5056582970407955  0.9203218340501769  0.4772416563606747 1.0000   
         C         C         1.0       0.5069149323366022  0.9326792819553589  0.5158798279011277 1.0000   
         C         C         1.0       0.5019835657536602  0.9147086080656193  0.5437047701093204 1.0000   
         C         C         1.0       0.49887490561722125           0.8848556096731125 0.5322077086678251 1.0000   
         C         C         1.0       0.5001380188375087  0.8733375350969924  0.4943500891557559 1.0000   
         C         C         1.0       0.49931436130303025           0.8883657875010131 0.466734515808339  1.0000   
         C         C         1.0       0.5348410572587737  0.9956453860423428  0.42513589865840656          1.0000   
         C         C         1.0       0.542603348896355   0.02746051596471566           0.43648867321610674          1.0000   
         C         C         1.0       0.5247381001818151  0.03414337607549367           0.4680369577897632 1.0000   
         C         C         1.0       0.49575028270126914           0.008046165790100757         0.4857515971906817 1.0000   
         C         C         1.0       0.4882578878740616  0.9752056042380083  0.4770153606089215 1.0000   
         C         C         1.0       0.510920419797165   0.9698809496262217  0.44832621068095907          1.0000   
         C         C         1.0       0.5425713456405298  0.07344239351696569           0.487699836384267  1.0000   
         C         C         1.0       0.5301707932007724  0.10750250149680363           0.6078927480449987 1.0000   
         C         C         1.0       0.5293326790009448  0.12374800478147963           0.5816377239529386 1.0000   
         C         C         1.0       0.5315995888150215  0.11248263902773692           0.5446388648187785 1.0000   
         C         C         1.0       0.5317118384370487  0.08338387302087757           0.5320028031336457 1.0000   
         C         C         1.0       0.5309728452666742  0.06733062064731432           0.5607085834208285 1.0000   
         C         C         1.0       0.5293851014244042  0.07823691653598619           0.5989664135461448 1.0000   
         C         C         1.0       0.523040100410113   0.0814639639664676  0.4624769073443361 1.0000   
         C         C         1.0       0.5397676296002041  0.09720837976297969           0.43027642245628317          1.0000   
         C         C         1.0       0.5214730381158604  0.10236100018373118           0.4084316731341168 1.0000   
         C         C         1.0       0.48354428752908046           0.08909576951183729          0.4161446398130522 1.0000   
         C         C         1.0       0.4646794606494238  0.06965761084748467           0.44703545828989333          1.0000   
         C         C         1.0       0.4842586399788849  0.06846655994529471           0.47031875437235376          1.0000   
         C         C         1.0       0.601198948984693   0.0810261961921861  0.5062403559341923 1.0000   
         C         C         1.0       0.6354763807264726  0.10124157990429072           0.5176391738765047 1.0000   
         C         C         1.0       0.6574595818886965  0.13641586179293452           0.5202319526488399 1.0000   
         C         C         1.0       0.6427951417712675  0.15056568135650705           0.5075874543418746 1.0000   
         C         C         1.0       0.6090751381779638  0.13124836613614987           0.49291000319357914          1.0000   
         C         C         1.0       0.5863496772499287  0.09543448876671423           0.49296005849939933          1.0000   
         H         H         1.0       0.5565635606864451  0.9177582774228245  0.39110516311225774          1.0000   
         H         H         1.0       0.5733589700835878  0.993545577890437   0.48526400684792353          1.0000   
         H         H         1.0       0.6353827630847056  0.014509176686616998         0.48696361821325257          1.0000   
         H         H         1.0       0.6223731007524282  0.9380898466642289  0.38895420317496576          1.0000   
         H         H         1.0       0.5104587497523566  0.9561118593955846  0.525256438445219  1.0000   
         H         H         1.0       0.5018697280050498  0.9244883124032811  0.5740261010989165 1.0000   
         H         H         1.0       0.49562662596304874           0.8480531438683118 0.48452254540896555          1.0000   
         H         H         1.0       0.4992744983503836  0.8765404327890329  0.4379803001311969 1.0000   
         H         H         1.0       0.5511995955163261  0.9919437792513593  0.40160968915003886          1.0000   
         H         H         1.0       0.5623754772940714  0.0477988731312573  0.41957970962917335          1.0000   
         H         H         1.0       0.4782440957806148  0.00992819766533648           0.5095114975771811 1.0000   
         H         H         1.0       0.46631649500650807           0.9534287956400054 0.4930715056043675 1.0000   
         H         H         1.0       0.5320649688683853  0.14677004740896749           0.5934752518437928 1.0000   
         H         H         1.0       0.534554299757364   0.12752232034969357           0.5248103157731365 1.0000   
         H         H         1.0       0.534931426289926   0.0466963365282802  0.5510185015591066 1.0000   
         H         H         1.0       0.526768868802384   0.06266151816642207           0.6187644188521575 1.0000   
         H         H         1.0       0.5690621609835725  0.10570254445965133           0.4229308831917986 1.0000   
         H         H         1.0       0.5358579029182599  0.11586541459146282           0.38415725592728023          1.0000   
         H         H         1.0       0.4356597215868237  0.05960088486224957           0.4528814693307082 1.0000   
         H         H         1.0       0.46768556560415747           0.054118557712524495         0.49478397768154175          1.0000   
         H         H         1.0       0.5855337402088765  0.05525462951635873           0.5108220937928908 1.0000   
         H         H         1.0       0.641722343957243   0.08943745049390617           0.5330606432036089 1.0000   
         H         H         1.0       0.657871031566641   0.17789599342951523           0.5097222504060825 1.0000   
         H         H         1.0       0.6009469556893469  0.14581385901399146           0.4864773976192734 1.0000   
         C         C         1.0       0.4209433038143421  0.6651741905504668  0.5438927117723033 1.0000   
         C         C         1.0       0.4562173411839369  0.6844205566042737  0.5533879381999677 1.0000   
         C         C         1.0       0.48487669618458973           0.7014471129701682 0.5259219649427742 1.0000   
         C         C         1.0       0.47533375323721283           0.696866486758871  0.48907160447761594          1.0000   
         C         C         1.0       0.4387676360708964  0.681525069699836   0.48079648672467007          1.0000   
         C         C         1.0       0.4110551324254643  0.6645820221164197  0.509487460220909  1.0000   
         H         H         1.0       0.4603472857663659  0.6820101336809612  0.5815710057581008 1.0000   
         H         H         1.0       0.5134667561680567  0.7123944413077692  0.5310065164430414 1.0000   
         H         H         1.0       0.4348524144969947  0.683050574793511   0.45195884758398436          1.0000   
         H         H         1.0       0.3813771516927975  0.6475070129843109  0.5038721856638471 1.0000   
         C         C         1.0       0.5143200840068897  0.2069674843504954  0.44858617192169253          1.0000   
         C         C         1.0       0.5324327393787863  0.22208206570986566           0.41569708871759586          1.0000   
         C         C         1.0       0.5217405241614507  0.20052877410962644           0.3814056321924777 1.0000   
         C         C         1.0       0.4949617837419321  0.16632892120545129           0.37827604745444676          1.0000   
         C         C         1.0       0.4751970773299325  0.15041206677125118           0.411078496439381  1.0000   
         C         C         1.0       0.4848983510999988  0.17168072766538645           0.4463972683439053 1.0000   
         C         C         1.0       0.5044714026894356  0.7037342663657666  0.4538181159726587 1.0000   
         C         C         1.0       0.5347210271740662  0.6976352669841195  0.4603961061061423 1.0000   
         C         C         1.0       0.5722974375281755  0.7202081878730119  0.4492925537148886 1.0000   
         C         C         1.0       0.5974118362158282  0.7128138586122519  0.4518299440755855 1.0000   
         C         C         1.0       0.5853274453417139  0.6822877131955087  0.4624845208766535 1.0000   
         C         C         1.0       0.5484534644535122  0.659654837784441   0.4724456411234666 1.0000   
         C         C         1.0       0.5240622793936213  0.6681203537408039  0.47314971351690266          1.0000   
         C         C         1.0       0.5063741218235702  0.7512195818425201  0.43092336110247886          1.0000   
         C         C         1.0       0.5249767048536609  0.7834488290021902  0.4228953995109112 1.0000   
         C         C         1.0       0.5587592311268884  0.8092040552979873  0.4388533681285564 1.0000   
         C         C         1.0       0.5667539793608781  0.8023678614838452  0.46972115534664227          1.0000   
         C         C         1.0       0.5492351820917067  0.7705811395384278  0.478847466037284  1.0000   
         C         C         1.0       0.5208414896565953  0.7445480759449085  0.4563234416072648 1.0000   
         C         C         1.0       0.5905702484310634  0.838117458551325   0.4128515314670867 1.0000   
         C         C         1.0       0.6399983614747775  0.7811465959673216  0.36083514384542903          1.0000   
         C         C         1.0       0.6081618260196717  0.7750870985972353  0.3456087239870992 1.0000   
         C         C         1.0       0.5939434412412742  0.7942531919761945  0.36009816372345443          1.0000   
         C         C         1.0       0.6091089274158129  0.8186041496803496  0.39188021096828485          1.0000   
         C         C         1.0       0.637627093986691   0.8231816952512728  0.40843415177658193          1.0000   
         C         C         1.0       0.6529835548084916  0.805293790230125   0.3933344157563602 1.0000   
         C         C         1.0       0.6178096242702378  0.8749409074197787  0.43693623230300555          1.0000   
         C         C         1.0       0.6034868138746367  0.8875585839691992  0.46738977074254207          1.0000   
         C         C         1.0       0.6251688370923678  0.9216322791893302  0.4805318660686313 1.0000   
         C         C         1.0       0.6603480973753015  0.9428486958779634  0.46532029339727377          1.0000   
         C         C         1.0       0.675090007417915   0.9299396423844934  0.43633269262985747          1.0000   
         C         C         1.0       0.6535696511139021  0.8953266102598001  0.4224918488480416 1.0000   
         C         C         1.0       0.5878546730351705  0.851455321302675   0.3462502417718278 1.0000   
         C         C         1.0       0.5691363119707127  0.8523417732648619  0.3207824344262941 1.0000   
         C         C         1.0       0.5366901320047368  0.8505997906386404  0.3328870046959335 1.0000   
         C         C         1.0       0.5268264396426147  0.8524742955325022  0.37249545032619163          1.0000   
         C         C         1.0       0.5457955866956294  0.8520543149354508  0.3981227559224964 1.0000   
         C         C         1.0       0.5746331487754057  0.847785089749193   0.3847866273623533 1.0000   
         H         H         1.0       0.5217202965498366  0.2219640157629268  0.47458242598744305          1.0000   
         H         H         1.0       0.5323950125187236  0.20929703648770248           0.353151755865256  1.0000   
         H         H         1.0       0.4875194243945653  0.15111249658699188           0.3507986814636332 1.0000   
         H         H         1.0       0.4670739243717451  0.15819751936771076           0.4696235967805676 1.0000   
         H         H         1.0       0.5806043816345131  0.7410040448217105  0.43566688830342964          1.0000   
         H         H         1.0       0.6266502318849411  0.728948466859751   0.4419087446747544 1.0000   
         H         H         1.0       0.5358092784006683  0.6347716624678118  0.4820114591227409 1.0000   
         H         H         1.0       0.49505234444209484           0.6496614425219841 0.48272752073721037          1.0000   
         H         H         1.0       0.48157127787753634           0.731351706886293  0.4186646354659195 1.0000   
         H         H         1.0       0.5119401561834682  0.7850922143053953  0.401132506878478  1.0000   
         H         H         1.0       0.587699481012331   0.8235698198290441  0.4887728207386929 1.0000   
         H         H         1.0       0.558379751342664   0.7658052777045721  0.49914359667510527          1.0000   
         H         H         1.0       0.5256063577161743  0.1719109724323622  0.28150916299162676          1.0000   
         H         H         1.0       0.5701239458639685  0.7892562266727018  0.35083661110932707          1.0000   
         H         H         1.0       0.6513872170233579  0.8426624736548318  0.4325212374431347 1.0000   
         H         H         1.0       0.6751238728557617  0.8106899249965003  0.4105043400318185 1.0000   
         H         H         1.0       0.5776129232321556  0.8692903686970047  0.4793525407354238 1.0000   
         H         H         1.0       0.610483181255778   0.93118927070367    0.49787475269018006          1.0000   
         H         H         1.0       0.7010278393848925  0.9468802651064764  0.42154355062904164          1.0000   
         H         H         1.0       0.6626805297828328  0.8867423418410341  0.3974622844035959 1.0000   
         H         H         1.0       0.6143230202241071  0.8577784202053397  0.33842204555482236          1.0000   
         H         H         1.0       0.5828093387297122  0.8563486438527066  0.2915553659323207 1.0000   
         H         H         1.0       0.5028907009963273  0.8530723148288262  0.38337868264808384          1.0000   
         H         H         1.0       0.5339575361320555  0.8524286236324348  0.4292683103254822 1.0000   
         C         C         1.0       0.5670798262458752  0.11833101729020723           0.30212517162740754          1.0000   
         C         C         1.0       0.5930127173424703  0.1116592491748496  0.2962154140510326 1.0000   
         C         C         1.0       0.5840757815112118  0.07904357533052053           0.29555463505713264          1.0000   
         C         C         1.0       0.548107166039894   0.05134695665872102           0.2915083134467285 1.0000   
         C         C         1.0       0.521671513928766   0.058296482127924376         0.29286135425095733          1.0000   
         C         C         1.0       0.5303177905197455  0.09109662191686518           0.29916989465513844          1.0000   
         H         H         1.0       0.6222433078929925  0.1340958545154558  0.2920750035194246 1.0000   
         H         H         1.0       0.6073845330752076  0.07748822137917322           0.2900866037446053 1.0000   
         H         H         1.0       0.49326365163874897           0.038823879458541155         0.29106812580844516          1.0000   
         H         H         1.0       0.5074860002752853  0.09319815124607356           0.2978119049922745 1.0000   
         C         C         1.0       0.4829426448786009  0.9798307267178671  0.3153432557757836 1.0000   
         C         C         1.0       0.49715377114062825           0.9834144033468906 0.27736598900490717          1.0000   
         C         C         1.0       0.479512018775735   0.9536097155416562  0.25040285311922783          1.0000   
         C         C         1.0       0.44679009092239963           0.9239953766785574 0.26017386000295095          1.0000   
         C         C         1.0       0.4351300021650151  0.9207306622187954  0.29758985049069175          1.0000   
         C         C         1.0       0.451302169047985   0.9491796176407021  0.32508907562797346          1.0000   
         C         C         1.0       0.5396591640595417  0.016012603471903697         0.2686070878264461 1.0000   
         C         C         1.0       0.5619877204932009  0.003436264734379968         0.2810424242820497 1.0000   
         C         C         1.0       0.5666718034692073  0.9809577371350245  0.2545287644841376 1.0000   
         C         C         1.0       0.1620063996929115  0.8930825515184175  0.1910091722973797 1.0000   
         C         C         1.0       0.18531625295689466           0.9139642924604287 0.22015329013461593          1.0000   
         C         C         1.0       0.1768832268453027  0.9301198860502098  0.25174306412010966          1.0000   
         C         C         1.0       0.5766279182881753  0.013906586115563613         0.31789922845369   1.0000   
         C         C         1.0       0.5266269108526859  0.02423862079208372           0.20732825892177   1.0000   
         C         C         1.0       0.5387453610289166  0.043255498811390236         0.1774275183147124 1.0000   
         C         C         1.0       0.5779471142891222  0.0645002457244972  0.16804155974584045          1.0000   
         C         C         1.0       0.6002675215893051  0.05871303297617336           0.18183247552318257          1.0000   
         C         C         1.0       0.5875978154741375  0.040466405527683325         0.21145936497131515          1.0000   
         C         C         1.0       0.5511633439955295  0.025538516363107444         0.2268974060922091 1.0000   
         C         C         1.0       0.5958327782776587  0.09350510153346536           0.14008068847123867          1.0000   
         C         C         1.0       0.5935169348940821  0.0331834075848223  0.03343186488912564          1.0000   
         C         C         1.0       0.5648157436955185  0.03651528508759583           0.042395496537896316         1.0000   
         C         C         1.0       0.5664898942489521  0.05675632723266055           0.0763324133797989 1.0000   
         C         C         1.0       0.5965140448399676  0.07401460452244701           0.09828976931278821          1.0000   
         C         C         1.0       0.6240726360239608  0.06903237083057956           0.08767071637581614          1.0000   
         C         C         1.0       0.6217115189872698  0.04754740918779077           0.05682596288545105          1.0000   
         C         C         1.0       0.6355356222309998  0.12513321869627236           0.1536069311498025 1.0000   
         C         C         1.0       0.6360167262811928  0.1364038973373507  0.19262012251074623          1.0000   
         C         C         1.0       0.7743921481362124  0.838691775052257   0.11292447240248049          1.0000   
         C         C         1.0       0.7794791164039144  0.844699726932177   0.07451000172855715          1.0000   
         C         C         1.0       0.7586634814722903  0.8178986389107552  0.047550770615349736         1.0000   
         C         C         1.0       0.665724725358711   0.14669909558524563           0.12921688777028706          1.0000   
         C         C         1.0       0.5820613413592681  0.13018464325671064           0.1127335633825235 1.0000   
         C         C         1.0       0.5583537475289272  0.1396103179289514  0.11064000141810548          1.0000   
         C         C         1.0       0.5290322524760066  0.13139096780224557           0.13734289789004062          1.0000   
         C         C         1.0       0.5276565385875553  0.12049477614011805           0.16965164634849694          1.0000   
         C         C         1.0       0.5507149020313441  0.11139155252563726           0.17275719303536463          1.0000   
         C         C         1.0       0.5756920917678332  0.11227914591239929           0.14267776282161138          1.0000   
         H         H         1.0       0.49695124903951227           0.0012298898562188576        0.3394434235264437 1.0000   
         H         H         1.0       0.4914631825935782  0.9536057582374282  0.22082299308922798          1.0000   
         H         H         1.0       0.4342238763176964  0.9027457910086859  0.2377772064816606 1.0000   
         H         H         1.0       0.4437351017428988  0.9487678464161506  0.3550594062878647 1.0000   
         H         H         1.0       0.5572329482538557  0.9713047490979455  0.22367872495213498          1.0000   
         H         H         1.0       0.16482655514491482           0.8767585332054514 0.1659982336879716 1.0000   
         H         H         1.0       0.19511618673872655           0.9449843194022892 0.2737261058839352 1.0000   
         H         H         1.0       0.5718080439920837  0.030129066499068546         0.33791614526311325          1.0000   
         H         H         1.0       0.4981820789869382  0.009526647752054807         0.21690663021123094          1.0000   
         H         H         1.0       0.5209846166943032  0.041772357848033126         0.15880066330071174          1.0000   
         H         H         1.0       0.6311967988438913  0.0724096444662532  0.17600005195510737          1.0000   
         H         H         1.0       0.6083041024304883  0.04189107155478844           0.22447947980780844          1.0000   
         H         H         1.0       0.5435533077274085  0.025227470409243002         0.023212089641644562         1.0000   
         H         H         1.0       0.5447429195186132  0.06045012851579301           0.08138118747846779          1.0000   
         H         H         1.0       0.6455267672314938  0.07716080927275404           0.10424715187266131          1.0000   
         H         H         1.0       0.6400263307898121  0.03942674459759643           0.047170394870415855         1.0000   
         H         H         1.0       0.6149131382009495  0.12319752152985486           0.21378557538418902          1.0000   
         H         H         1.0       0.7881483553938777  0.8607047183480958  0.13455270726681223          1.0000   
         H         H         1.0       0.7638033425396827  0.8188197817681738  0.015804830390202307         1.0000   
         H         H         1.0       0.6642982184054316  0.1408046634566995  0.09849435315541766          1.0000   
         H         H         1.0       0.6007580555986014  0.1340268271074898  0.08957495607864652          1.0000   
         H         H         1.0       0.5608171752400564  0.15028709728979273           0.08550503328959214          1.0000   
         H         H         1.0       0.5053687706111619  0.1146181803622155  0.19223850123610764          1.0000   
         H         H         1.0       0.5455311322803824  0.10041618296926225           0.19745508378571408          1.0000   
         C         C         1.0       0.5779302052129297  0.15428907214498921           0.30356585043501283          1.0000   
         C         C         1.0       0.6549998645918833  0.7596532404767983  0.3381679698782459 1.0000   
         H         H         1.0       0.6552205186839926  0.7301704828021022  0.37595322370627293          1.0000   
         H         H         1.0       0.5626883471566521  0.1585297403138448  0.32759513168787724          1.0000   
         H         H         1.0       0.5610279832985099  0.14291239774007058           0.24387206874381065          1.0000   
         H         H         1.0       0.6839372964179781  0.7755503216076866  0.3338120357243732 1.0000   
         C         C         1.0       0.40376524909710493           0.885631788211734  0.3083253409767236 1.0000   
         C         C         1.0       0.42271964462393663           0.8680271476154926 0.3117978174904156 1.0000   
         H         H         1.0       0.3878145484725051  0.8859807049566576  0.3354820585047805 1.0000   
         H         H         1.0       0.38490542905894126           0.8712061168299632 0.2839447913799683 1.0000   
         H         H         1.0       0.3991202230436307  0.8414708561542668  0.31701540164616115          1.0000   
         H         H         1.0       0.43759200585581814           0.8650997977447014 0.28343673064059083          1.0000   
         C         C         1.0       0.46053708360673995           0.09112528296245648          0.3892810263057047 1.0000   
         C         C         1.0       0.4446067273818173  0.1113596298544115  0.4067067417839331 1.0000   
         H         H         1.0       0.47816425116406247           0.09877339883566849          0.36232101205482126          1.0000   
         H         H         1.0       0.4356684851835391  0.06573903065869113           0.3796256022083529 1.0000   
         H         H         1.0       0.4287745483599116  0.10312906093092122           0.43379194960807477          1.0000   
         H         H         1.0       0.42466276706156736           0.10479492603261886          0.3875396329810615 1.0000   
         C         C         1.0       0.6737678447033433  0.9924502886972412  0.4387676552888981 1.0000   
         C         C         1.0       0.677510115625537   0.9814019858678475  0.47382141556235957          1.0000   
         H         H         1.0       0.6924006012970717  0.02011572274722173           0.4407406305175463 1.0000   
         H         H         1.0       0.6831188372971595  0.9829175229336405  0.41118208866211403          1.0000   
         H         H         1.0       0.6633883034388048  0.9883863541360486  0.4977374065530231 1.0000   
         H         H         1.0       0.7060447381682105  0.9951871925099895  0.4795774626109778 1.0000   
         C         C         1.0       0.2504013910215393  0.9490541844566682  0.1878558407887158 1.0000   
         C         C         1.0       0.2245494879430021  0.9224478323048697  0.2151681886751183 1.0000   
         H         H         1.0       0.23500073680076924           0.939002367650893  0.162323038906987  1.0000   
         H         H         1.0       0.27557785719428285           0.9485589553597513 0.18032759852782018          1.0000   
         H         H         1.0       0.23500231197719185           0.9309651484475538 0.24427102763432648          1.0000   
         H         H         1.0       0.2259541029105848  0.900789815026924   0.20517882032760257          1.0000   
         C         C         1.0       0.6482408871003404  0.1774937968090955  0.3731900049502506 1.0000   
         C         C         1.0       0.6133058023997011  0.6737516189570213  0.4619970536089727 1.0000   
         H         H         1.0       0.6550675951791951  0.18446258124670645           0.3452026646791516 1.0000   
         H         H         1.0       0.6175556944968925  0.15805350041053368           0.37432627793323375          1.0000   
         H         H         1.0       0.6031863082716331  0.6525539539869856  0.4786383473938363 1.0000   
         H         H         1.0       0.6396917943012139  0.696559845411643   0.47274166624972613          1.0000   
         C         C         1.0       0.4772323157850824  0.804189486324114   0.2983210297555029 1.0000   
         C         C         1.0       0.5092456091922594  0.8427680602333968  0.30510845661074837          1.0000   
         H         H         1.0       0.4883194033034906  0.7887815104175269  0.28661630525701004          1.0000   
         H         H         1.0       0.46295888714997746           0.8014968888212199 0.27548613128978955          1.0000   
         H         H         1.0       0.5215703566697076  0.8503599432502061  0.2763344566727307 1.0000   
         H         H         1.0       0.4949558909144412  0.8554293699555027  0.3146888428712861 1.0000   
         C         C         1.0       0.4571362957644506  0.8331271074735263  0.571946695660308  1.0000   
         C         C         1.0       0.496314327774164   0.8636852919684932  0.5617358302481743 1.0000   
         H         H         1.0       0.44087611095394535           0.8412635268269655 0.5924288603474823 1.0000   
         H         H         1.0       0.457342755721441   0.8181897438865416  0.5916549802390837 1.0000   
         H         H         1.0       0.5157684970702705  0.8564060136036113  0.5503748646814905 1.0000   
         H         H         1.0       0.5098994881015109  0.8780742055335365  0.5890477320817907 1.0000   
         C         C         1.0       0.2941301519753914  0.07669431914258484           0.45481643996112303          1.0000   
         C         C         1.0       0.6936750580116349  0.15701986820686953           0.538813345614606  1.0000   
         H         H         1.0       0.7026453775721526  0.11895513379149181           0.5488337764770632 1.0000   
         H         H         1.0       0.2988385764611144  0.10046786445100198           0.47217099080308944          1.0000   
         H         H         1.0       0.2734512837227847  0.0462165553959728  0.5006804895588188 1.0000   
         H         H         1.0       0.6877235169382209  0.15688172475676    0.5685396304312141 1.0000   
         C         C         1.0       0.4972973435677792  0.13283905317011557           0.13285019592053637          1.0000   
         C         C         1.0       0.4582112886547058  0.0980563719697165  0.13238858357303274          1.0000   
         H         H         1.0       0.4999025005619469  0.1535255126895998  0.15684166511815278          1.0000   
         H         H         1.0       0.5070737558699538  0.14817796856626564           0.1074781821944506 1.0000   
         H         H         1.0       0.43603557294895456           0.09958063457454114          0.15217135467034915          1.0000   
         H         H         1.0       0.4569508163949569  0.08034555632063523           0.1497872478592892 1.0000   
         C         C         1.0       0.5933367482049327  0.008544452835369087         0.9981904742946313 1.0000   
         C         C         1.0       0.5817838362672528  0.9728820264883872  0.0046764863804569234        1.0000   
         H         H         1.0       0.5744936822064713  0.0032177162087985156        0.9760935227858892 1.0000   
         H         H         1.0       0.6223602053911965  0.023685079937417752         0.9846434871439459 1.0000   
         H         H         1.0       0.5530798065571926  0.958015929898602   0.016253289411482852         1.0000   
         H         H         1.0       0.5992070047587813  0.9741687309324584  0.024810662316176568         1.0000   
         C         C         1.0       0.26442478505552053           0.848385530402649  0.9642227518453413 1.0000   
         C         C         1.0       0.25557413513042115           0.8704660916472676 0.9949608246726493 1.0000   
         H         H         1.0       0.29495600175546505           0.8602822238220101 0.9615101579385575 1.0000   
         H         H         1.0       0.24971527944248875           0.8215525162730232 0.9685399858835092 1.0000   
         H         H         1.0       0.24575798909617522           0.8588196030526675 0.023185025280667126         1.0000   
         H         H         1.0       0.23006338566557522           0.8667051737785776 0.988423516099313  1.0000   
         C         C         1.0       0.5462091028631858  0.08150316548021519           0.9725220265681862 1.0000   
         C         C         1.0       0.5735161939461613  0.11985199537385571           0.992501278086442  1.0000   
         H         H         1.0       0.5181428666227961  0.07350511372221447           0.9643130390418332 1.0000   
         H         H         1.0       0.5407862407628535  0.0660153609517331  0.9945467499279533 1.0000   
         H         H         1.0       0.5723872148875049  0.11636346646712226           0.023412556699833775         1.0000   
         H         H         1.0       0.6033646313381621  0.13219240686441958           0.9811751271917987 1.0000   
         C         C         1.0       0.7942157580768606  0.8982224069591334  0.04667661568047743          1.0000   
         C         C         1.0       0.8079014411818647  0.8784737866051643  0.05848587475292644          1.0000   
         H         H         1.0       0.8168521429730714  0.921686379368019   0.03522722361628072          1.0000   
         H         H         1.0       0.7845195845120512  0.9075625087560767  0.07320938524829956          1.0000   
         H         H         1.0       0.8236175654175738  0.8726711542813587  0.03333816949485824          1.0000   
         H         H         1.0       0.827914618168884   0.8951514680078541  0.07938701639624934          1.0000   
         C         C         1.0       0.5375805117690584  0.784459169336223   0.7523368376309162 1.0000   
         C         C         1.0       0.5417259487965843  0.8134574648828222  0.7368425387414707 1.0000   
         H         H         1.0       0.5266982079081075  0.7626056611317104  0.7283667858920281 1.0000   
         H         H         1.0       0.5156831334649367  0.7751452824933046  0.7764548180386306 1.0000   
         H         H         1.0       0.5135711920330728  0.8053089151294693  0.7286853355242588 1.0000   
         H         H         1.0       0.5587559408289606  0.8174642274727179  0.7078748993770552 1.0000   
         C         C         1.0       0.2186878772982275  0.05546034535014299           0.008904946051227158         1.0000   
         C         C         1.0       0.7098093050830502  0.1627570158845788  0.03749945840875957          1.0000   
         H         H         1.0       0.23887076966611814           0.08103431204313316          0.0221530730609667 1.0000   
         H         H         1.0       0.2043300886381593  0.041930318948915524         0.03242501678209431          1.0000   
         H         H         1.0       0.7234988065724605  0.17287696918733908           0.06558396151265344          1.0000   
         H         H         1.0       0.6860292022199106  0.13637907436488117           0.039967752561988146         1.0000   
         C         C         1.0       0.48312118178932284           0.9305462440063639 0.8692572027302862 1.0000   
         C         C         1.0       0.4830482118559717  0.944533686722686   0.9123541397961218 1.0000   
         H         H         1.0       0.4896476241795561  0.9501772973363358  0.853840316771363  1.0000   
         H         H         1.0       0.5076418942306301  0.9288213722980215  0.857289025512378  1.0000   
         H         H         1.0       0.5106434228323589  0.9697228405368183  0.9119539049667319 1.0000   
         H         H         1.0       0.48602721534213816           0.9296639535391351 0.9289447042626677 1.0000   
         C         C         1.0       0.5391321065266279  0.8147577641489102  0.030983402895509382         1.0000   
         C         C         1.0       0.5066140360157985  0.799168751899407   0.005296318808283074         1.0000   
         H         H         1.0       0.5295608191140775  0.8034124978918372  0.057764787240860205         1.0000   
         H         H         1.0       0.550311302992799   0.8417967490689404  0.03977834500718247          1.0000   
         H         H         1.0       0.5208177554391674  0.809901076568934   0.977988773150901  1.0000   
         H         H         1.0       0.49105816265845215           0.8099568618030951 0.017545316111678755         1.0000   
         C         C         1.0       0.5310857685428726  0.12163078148341833           0.6491311311941689 1.0000   
         C         C         1.0       0.5736554368796719  0.1456996213192998  0.6571433226126836 1.0000   
         H         H         1.0       0.5193684982755223  0.13819754742995016           0.6556464776343425 1.0000   
         H         H         1.0       0.5145962242110411  0.10131076698515207           0.6676615479701364 1.0000   
         H         H         1.0       0.5844408040349057  0.12982847782454243           0.653584170395684  1.0000   
         H         H         1.0       0.5737852254799196  0.15385405278666253           0.6891346334419332 1.0000   
         C         C         1.0       0.3764192147473236  0.6050001900857193  0.560129838860811  1.0000   
         C         C         1.0       0.3910129270453638  0.6429769469180846  0.5722528565230673 1.0000   
         H         H         1.0       0.36405575862652584           0.5946573697498195 0.532415547618929  1.0000   
         H         H         1.0       0.3532096987815566  0.5894519876392801  0.5800890594198034 1.0000   
         H         H         1.0       0.3963730597610848  0.6497259376629523  0.6022444202481998 1.0000   
         H         H         1.0       0.3697461813828058  0.6475893977193639  0.5708597352058907 1.0000   
         C         C         1.0       0.27053969304384756           0.5814332975910139 0.45127061907891824          1.0000   
         C         C         1.0       0.31321759831562807           0.5958713073779989 0.4418885189315588 1.0000   
         H         H         1.0       0.25521591539803734           0.5666522108032698 0.4246722149205777 1.0000   
         H         H         1.0       0.2652469663764328  0.6018703087259738  0.45607911645249016          1.0000   
         H         H         1.0       0.3189996853609695  0.5824368571264564  0.4167888399285047 1.0000   
         H         H         1.0       0.3240777797686746  0.593881244306095   0.4669838560948707 1.0000   
         C         C         1.0       0.5031286319204029  0.17479973440149643           0.793167428734946  1.0000   
         C         C         1.0       0.5369427857434933  0.2133783361903978  0.7987501604252696 1.0000   
         H         H         1.0       0.509093515048704   0.16155460751099704           0.767526199348659  1.0000   
         H         H         1.0       0.47817872856155863           0.17116118483904597          0.7840066828816744 1.0000   
         H         H         1.0       0.5360414406183106  0.22910632564208422           0.7838676900428505 1.0000   
         H         H         1.0       0.5376174264698993  0.2247851131936991  0.8276822693028354 1.0000   
         C         C         1.0       0.32140582712618954           0.6659614551067338 0.7437096291331617 1.0000   
         C         C         1.0       0.3639268463377117  0.6873518061914005  0.7510800131355696 1.0000   
         H         H         1.0       0.6256763564458228  0.6366507146408475  0.7788808401573768 1.0000   
         H         H         1.0       0.3079009488704577  0.6764663806681753  0.7637235826420632 1.0000   
         H         H         1.0       0.36594952520263374           0.6772008766629665 0.7753822221213044 1.0000   
         H         H         1.0       0.380309004622732   0.6835770650371177  0.7267138172387747 1.0000   
         C         C         1.0       0.7099759996798192  0.13335111210908424           0.7175335757045714 1.0000   
         C         C         1.0       0.7351536109661562  0.17136403023614855           0.7198284162767021 1.0000   
         H         H         1.0       0.4103652176286284  0.1299855178358409  0.8009270039248015 1.0000   
         H         H         1.0       0.6885257437313606  0.12133506471220112           0.6962596312613103 1.0000   
         H         H         1.0       0.747455214670707   0.17932607151706859           0.6907422680529037 1.0000   
         H         H         1.0       0.7579115184891696  0.18353490264203365           0.7380342151645235 1.0000   
         C         C         1.0       0.10399193350794755           0.3947468729572326 0.558600378017044  1.0000   
         C         C         1.0       0.1358119375169684  0.41185921514881885           0.534453042245359  1.0000   
         C         C         1.0       0.16025695631466297           0.44538615327887326          0.5461439215754466 1.0000   
         C         C         1.0       0.15011072042517593           0.46411307570335325          0.5744735582721602 1.0000   
         C         C         1.0       0.11710232271401444           0.44581841378713805          0.5962187191296968 1.0000   
         C         C         1.0       0.09516593145331753           0.41181123686062854          0.5885507270093099 1.0000   
         H         H         1.0       0.14273202784496908           0.39770668867302644          0.5129264273166373 1.0000   
         H         H         1.0       0.18724981312871702           0.45988441205852215          0.5300905489071814 1.0000   
         H         H         1.0       0.11089763025115085           0.46198596966399935          0.6154224279164944 1.0000   
         H         H         1.0       0.07206314063899844           0.3989798301486834 0.6093984424084414 1.0000   
         C         C         1.0       0.11682970133538229           0.4984218481519699 0.5630702599807051 1.0000   
         C         C         1.0       0.1504973681091899  0.5190278615478973  0.5775726961119444 1.0000   
         C         C         1.0       0.29560724399230853           0.26007403374860594          0.6248387388650631 1.0000   
         C         C         1.0       0.2902437327026257  0.28055030823627986           0.6098453656295524 1.0000   
         C         C         1.0       0.2548324738160974  0.26787728719648246           0.601070757822313  1.0000   
         C         C         1.0       0.22861799161322316           0.2349373374898321 0.6020855708385574 1.0000   
         C         C         1.0       0.17483343109291716           0.5050836769554937 0.5772199406415066 1.0000   
         C         C         1.0       0.2051321918089375  0.5232725428236671  0.5427680833770926 1.0000   
         C         C         1.0       0.7607333937895127  0.29769645279219437           0.5591806412072995 1.0000   
         C         C         1.0       0.7861698006433041  0.30099401552869337           0.5290207650606756 1.0000   
         C         C         1.0       0.773834557795266   0.2764973783948962  0.4968388516645245 1.0000   
         C         C         1.0       0.5526964024877689  0.582884160342407   0.5115497096097306 1.0000   
         C         C         1.0       0.19842315245640085           0.5092095847507487 0.5040891562106178 1.0000   
         C         C         1.0       0.1736885975220095  0.5158429214496083  0.6501707975278234 1.0000   
         C         C         1.0       0.1861610186651499  0.519802773216147   0.6842181641530656 1.0000   
         C         C         1.0       0.21470311720996782           0.5166746208697997 0.6853243048869716 1.0000   
         C         C         1.0       0.23467086516544833           0.514557932638226  0.6512280989001756 1.0000   
         C         C         1.0       0.22261738838920886           0.5126152638143526 0.6161121244274259 1.0000   
         C         C         1.0       0.1920082156859788  0.513086534683597   0.6152734827306442 1.0000   
         C         C         1.0       0.22290112272212315           0.5182804931670657 0.728123905617672  1.0000   
         C         C         1.0       0.11458527039191746           0.45942332762317695          0.7910650735734456 1.0000   
         C         C         1.0       0.14160215803615284           0.49016573773877   0.808840899351435  1.0000   
         C         C         1.0       0.17744804875067066           0.5094253876592288 0.7903506914586574 1.0000   
         C         C         1.0       0.1854834993181793  0.49663443301172594           0.7546302993168517 1.0000   
         C         C         1.0       0.15686905614583302           0.4644823240144918 0.7368419379287242 1.0000   
         C         C         1.0       0.12238701745140057           0.4467623102973432 0.7557901720845273 1.0000   
         C         C         1.0       0.2512356320678075  0.5579940352100434  0.7386669958467148 1.0000   
         C         C         1.0       0.5224230967198836  0.5546357079191129  0.756414791466032  1.0000   
         C         C         1.0       0.7822201962832864  0.34227755977686014           0.7951936882530686 1.0000   
         C         C         1.0       0.7703368372187227  0.36303181092893183           0.8151004620182744 1.0000   
         C         C         1.0       0.3534249545297037  0.28022415530953737           0.8511636323927563 1.0000   
         C         C         1.0       0.2377558882602111  0.5781829890330734  0.7521749589619965 1.0000   
         C         C         1.0       0.259114575946106   0.5113231038767975  0.7669652813182698 1.0000   
         C         C         1.0       0.27071779134458307           0.4943698984281725 0.7780558301980453 1.0000   
         C         C         1.0       0.26405433124113786           0.4647195609229412 0.7550504129012635 1.0000   
         C         C         1.0       0.2487694533505591  0.45492404510379975           0.720853827365831  1.0000   
         C         C         1.0       0.23949275869502396           0.4733718382312143 0.7084360179316987 1.0000   
         C         C         1.0       0.24317797072253966           0.5020551156400556 0.7316516928453292 1.0000   
         H         H         1.0       0.11077181901939559           0.4759521889630899 0.5438926982382103 1.0000   
         H         H         1.0       0.3241025052530633  0.2706981511761791  0.6299211085914672 1.0000   
         H         H         1.0       0.3122809152533712  0.30629684725922246           0.6099754596102837 1.0000   
         H         H         1.0       0.20071890443311946           0.2247197568908415 0.5941159151939678 1.0000   
         H         H         1.0       0.770067913605032   0.31444020663367434           0.5865986149324393 1.0000   
         H         H         1.0       0.8169360936231714  0.32166220446621063           0.5298019560273557 1.0000   
         H         H         1.0       0.5640046670379182  0.5832032174600548  0.48320837516904797          1.0000   
         H         H         1.0       0.1713471097735919  0.4859889483951208  0.49744629013445596          1.0000   
         H         H         1.0       0.14816842143044906           0.514786297366414  0.6553643088141488 1.0000   
         H         H         1.0       0.16745994611508652           0.5170084968849957 0.7080091326073419 1.0000   
         H         H         1.0       0.501024909388647   0.5324807571317741  0.6647134797425746 1.0000   
         H         H         1.0       0.49445742515614655           0.5298406144804566 0.5999983638178249 1.0000   
         H         H         1.0       0.13347837084676506           0.5012268060765305 0.834503786476981  1.0000   
         H         H         1.0       0.197590068030288   0.5337978018955345  0.8038798526181129 1.0000   
         H         H         1.0       0.16050057861946687           0.453195148115512  0.7092178862505291 1.0000   
         H         H         1.0       0.09944863713505758           0.42211344278729734          0.7387644284436755 1.0000   
         H         H         1.0       0.5098157907279429  0.5320820758301135  0.7677203639225432 1.0000   
         H         H         1.0       0.8107461470663412  0.35162811019662105           0.7945985019344357 1.0000   
         H         H         1.0       0.3366253716244376  0.2847574941120944  0.8727064776869831 1.0000   
         H         H         1.0       0.20930558027298796           0.5689860545868582 0.7619577407951201 1.0000   
         H         H         1.0       0.26662293098075485           0.5355320248040242 0.784457674004287  1.0000   
         H         H         1.0       0.27891827379890066           0.5040920408721833 0.8087480261384125 1.0000   
         H         H         1.0       0.2389111643715065  0.42973408988744605           0.7045707215577234 1.0000   
         H         H         1.0       0.2290745606692195  0.4656935094267751  0.6806296220100642 1.0000   
         C         C         1.0       0.1972129288340556  0.12204782773673896           0.15833746884478295          1.0000   
         C         C         1.0       0.230019451774498   0.14712714712655633           0.13921225997601416          1.0000   
         C         C         1.0       0.22780810603558121           0.16455267768701687          0.11616428766172326          1.0000   
         C         C         1.0       0.1945271555511081  0.15957069562630324           0.11242312053199655          1.0000   
         C         C         1.0       0.16293956093779016           0.1357202261509025 0.13287633793003772          1.0000   
         C         C         1.0       0.16456434748722026           0.1177793820097457 0.15521982481239727          1.0000   
         H         H         1.0       0.25603621694497547           0.1503789461450105 0.13886809962816193          1.0000   
         H         H         1.0       0.7299734693199703  0.2984319809814579  0.10614426038314262          1.0000   
         H         H         1.0       0.13596283809741028           0.12723781264277556          0.12988706735794198          1.0000   
         H         H         1.0       0.14194230459983426           0.1039496920874612 0.17451993596392845          1.0000   
         C         C         1.0       0.14637143651331552           0.18643834312010585          0.11123029510440108          1.0000   
         C         C         1.0       0.15591407171106608           0.17208399784879708          0.07821411318628968          1.0000   
         C         C         1.0       0.1362156144969633  0.16061358981009824           0.045462397206978755         1.0000   
         C         C         1.0       0.10301791233879443           0.15817365870230415          0.04871696936169667          1.0000   
         C         C         1.0       0.09066789562473376           0.16821406437074884          0.08401751417675851          1.0000   
         C         C         1.0       0.1124958900463997  0.1822268212863691  0.11468111719251639          1.0000   
         C         C         1.0       0.19044263916178927           0.17030865778328336          0.07400498996255078          1.0000   
         C         C         1.0       0.18859612753537247           0.14039413141575438          0.043872253708224784         1.0000   
         C         C         1.0       0.2179568154594338  0.14235082298757673           0.02138598295388361          1.0000   
         C         C         1.0       0.7194574197337367  0.21458664209296516           0.026821287504497304         1.0000   
         C         C         1.0       0.2410585574717441  0.6533455266551432  0.9591749942253214 1.0000   
         C         C         1.0       0.2078808831448622  0.6502669472101426  0.9613795675906788 1.0000   
         C         C         1.0       0.15568841446453163           0.10614995381151517          0.046855733818481404         1.0000   
         C         C         1.0       0.6908380546543137  0.28932622095058524           0.018371194504192667         1.0000   
         C         C         1.0       0.7052523893445902  0.3188331729860703  0.0036697344328895376        1.0000   
         C         C         1.0       0.7103897215604064  0.3467385804483852  0.027714340126097525         1.0000   
         C         C         1.0       0.7030643343721206  0.344760825253649   0.06579936724209823          1.0000   
         C         C         1.0       0.2377294835174546  0.23489577562015493           0.09030072396457745          1.0000   
         C         C         1.0       0.2209577818111601  0.20751990157443306           0.06290751495724889          1.0000   
         C         C         1.0       0.7198043473733826  0.3790264070119806  0.012443744435649995         1.0000   
         C         C         1.0       0.7914506335030139  0.40600264972284084           0.9045076919942091 1.0000   
         C         C         1.0       0.7652074643246367  0.4131082452171909  0.9128051483196247 1.0000   
         C         C         1.0       0.7432494839085689  0.40460123573137974           0.9463862363350652 1.0000   
         C         C         1.0       0.7440550962515208  0.38775211416644517           0.9715324612013739 1.0000   
         C         C         1.0       0.7703801842527472  0.3803812443606337  0.9612232025370482 1.0000   
         C         C         1.0       0.7923406269758094  0.3879653724369157  0.9278280605142408 1.0000   
         C         C         1.0       0.7425491484260862  0.41558187640582006           0.03818171209482846          1.0000   
         C         C         1.0       0.7663942719479625  0.42020617579390374           0.0622142463845361 1.0000   
         C         C         1.0       0.7804617537567935  0.4478734774605115  0.09021729002293966          1.0000   
         C         C         1.0       0.7771256715308504  0.47354487010076074           0.08805762837898268          1.0000   
         C         C         1.0       0.757544368700354   0.47054594046883375           0.06083182123000408          1.0000   
         C         C         1.0       0.7392931708106307  0.4408881378050519  0.03574143808920072          1.0000   
         C         C         1.0       0.6545236614327496  0.36796845607122153           0.039248680209153175         1.0000   
         C         C         1.0       0.6193282426599873  0.3569188824670664  0.03382187661762592          1.0000   
         C         C         1.0       0.16165606658546228           0.2686383922636404 0.04304499763292702          1.0000   
         C         C         1.0       0.18008966160817996           0.26856702838996765          0.006428410791504913         1.0000   
         C         C         1.0       0.2180633495309796  0.28271626594067023           0.003061048896537466         1.0000   
         C         C         1.0       0.677706795058189   0.3642573000639956  0.008867284682736232         1.0000   
         H         H         1.0       0.1645262620395025  0.19345101192318317           0.13300217437150819          1.0000   
         H         H         1.0       0.14736953227896832           0.1532879664439153 0.01787190014822304          1.0000   
         H         H         1.0       0.08692088295822042           0.14670531916090052          0.025780992382895773         1.0000   
         H         H         1.0       0.10090132474043134           0.1859784652519778 0.1426575891103603 1.0000   
         H         H         1.0       0.7282267135167623  0.26308009340117644           0.0356446761868916 1.0000   
         H         H         1.0       0.7484968919993727  0.22703165819365162           0.02390997533304362          1.0000   
         H         H         1.0       0.1810005029318975  0.6279621591767138  0.9690835963715958 1.0000   
         H         H         1.0       0.13320068110765448           0.10458418882582185          0.06530543878331008          1.0000   
         H         H         1.0       0.21870429425404692           0.19257639036891339          0.001931699796838604         1.0000   
         H         H         1.0       0.7099787493421249  0.3184616062366245  0.9716998707610821 1.0000   
         H         H         1.0       0.7078207675438905  0.36554136778303087           0.08431068081215498          1.0000   
         H         H         1.0       0.22981662490640842           0.23195717588094703          0.1207982459523691 1.0000   
         H         H         1.0       0.7614898790904956  0.42383179270506127           0.8926762442045001 1.0000   
         H         H         1.0       0.7228456409519444  0.4102202625918731  0.9516541150277205 1.0000   
         H         H         1.0       0.7710578129996959  0.3673612099621591  0.9824022446345225 1.0000   
         H         H         1.0       0.8112969670342377  0.3798301934876238  0.9201430270699038 1.0000   
         H         H         1.0       0.7723583803697872  0.4018629612981341  0.057092608053838534         1.0000   
         H         H         1.0       0.7949322915681397  0.4500389346018079  0.11303556784954516          1.0000   
         H         H         1.0       0.7519290587347082  0.48852707404238077           0.0615426663946812 1.0000   
         H         H         1.0       0.7221732882390659  0.43921030537398836           0.017101918686608375         1.0000   
         H         H         1.0       0.666825159446486   0.3799413864908032  0.06738821916192794          1.0000   
         H         H         1.0       0.6075501961774721  0.3662286931473454  0.057875086156888855         1.0000   
         H         H         1.0       0.1635589118371361  0.2540446116089057  0.9807286679390951 1.0000   
         H         H         1.0       0.23376457409419737           0.28307180625121997          0.9760320451476086 1.0000   
         C         C         1.0       0.29280279150697397           0.46858487521798114          0.8403100810913999 1.0000   
         C         C         1.0       0.5158735861248445  0.46802818983696204           0.7983371046343913 1.0000   
         C         C         1.0       0.5397999113038543  0.4909217208964407  0.8274753569782761 1.0000   
         C         C         1.0       0.27109590819102447           0.4873467900478196 0.9122717949765414 1.0000   
         C         C         1.0       0.24762398922054984           0.45510765809133097          0.8926245368110267 1.0000   
         C         C         1.0       0.25965153231607774           0.44636300446570554          0.8582027517983836 1.0000   
         H         H         1.0       0.5235222514738552  0.471105457524528   0.7678765199663469 1.0000   
         H         H         1.0       0.5681907215882651  0.5101331126403533  0.8180785500653764 1.0000   
         H         H         1.0       0.21733941198823326           0.43911691163690997          0.899394219326338  1.0000   
         H         H         1.0       0.24127726740837896           0.42241267014078093          0.844099063268097  1.0000   
         C         C         1.0       0.20697343592590656           0.494942488541404  0.9094386757625152 1.0000   
         C         C         1.0       0.21316040293765548           0.4886171583842103 0.9422095212209108 1.0000   
         C         C         1.0       0.18518912652989084           0.4783001355792961 0.9718085821949083 1.0000   
         C         C         1.0       0.15530737246874904           0.47747870036895235          0.9688375273360508 1.0000   
         C         C         1.0       0.14912494045532765           0.483485654177872  0.9373124492707866 1.0000   
         C         C         1.0       0.1760928291808399  0.4934739130468907  0.9063986174208384 1.0000   
         C         C         1.0       0.2530761406528108  0.4996349464435845  0.9491603255527397 1.0000   
         C         C         1.0       0.5859328071348647  0.5537351142613214  0.886865441849452  1.0000   
         C         C         1.0       0.6206805981352765  0.5742079094099609  0.9007458870400125 1.0000   
         C         C         1.0       0.6423147900126458  0.6082463730790102  0.90134599422988   1.0000   
         C         C         1.0       0.6319993936586961  0.6242696165907385  0.8852187967296229 1.0000   
         C         C         1.0       0.5998988880750187  0.6025386173484281  0.863115756326094  1.0000   
         C         C         1.0       0.28329515452116705           0.5610991817615567 0.9313623266190026 1.0000   
         C         C         1.0       0.2272394713334307  0.44632809257854134           0.9801154636095885 1.0000   
         C         C         1.0       0.21693374511294317           0.4316817250135992 0.013183412151587692         1.0000   
         C         C         1.0       0.6111881746730483  0.47877575863511923           0.9298335553797589 1.0000   
         C         C         1.0       0.624228397979604   0.49563838483870787           0.8978459733507248 1.0000   
         C         C         1.0       0.6017030904092798  0.5013007514369047  0.884169383248719  1.0000   
         C         C         1.0       0.2526416637782567  0.48088130225367076           0.9817068448508711 1.0000   
         C         C         1.0       0.6389743511119348  0.4785121421960711  0.9532154965159682 1.0000   
         C         C         1.0       0.16029213329718894           0.4918557721120974 0.09625967327186213          1.0000   
         C         C         1.0       0.14335640158279706           0.4596723583390287 0.07576174748154574          1.0000   
         C         C         1.0       0.15905220211406235           0.4418961185198792 0.0713090553885749 1.0000   
         C         C         1.0       0.6512121582692776  0.5123486564004825  0.9814443158952132 1.0000   
         C         C         1.0       0.6764345483575795  0.5430411844528981  0.9688726724645779 1.0000   
         C         C         1.0       0.6832155561167346  0.5734569473575505  0.9877737476115604 1.0000   
         C         C         1.0       0.6729381304825522  0.4780675772102406  0.929966128892409  1.0000   
         C         C         1.0       0.6711555039624304  0.46003469126905855           0.8938478411576807 1.0000   
         C         C         1.0       0.7010351405096205  0.46063986843250443           0.8756908695476108 1.0000   
         C         C         1.0       0.7350733807361886  0.47921136296041195           0.89141218038248   1.0000   
         C         C         1.0       0.7365505044089884  0.4987303645417459  0.9281449467113467 1.0000   
         C         C         1.0       0.7058464818441393  0.4958385663529392  0.9474733350021156 1.0000   
         C         C         1.0       0.15284473936102927           0.3760332998442382 0.09651400806995958          1.0000   
         C         C         1.0       0.13006079539628135           0.34166033406868856          0.0845896997408162 1.0000   
         C         C         1.0       0.14498773060671266           0.3273018139532307 0.057902550595461566         1.0000   
         C         C         1.0       0.18259899995091255           0.3470483806445507 0.04764429807979287          1.0000   
         C         C         1.0       0.20556014267243938           0.3805111674726665 0.06310190860531928          1.0000   
         C         C         1.0       0.1894283888160715  0.3955690024596227  0.08288150231461455          1.0000   
         H         H         1.0       0.22673094919164338           0.4989418659797113 0.8861744903414484 1.0000   
         H         H         1.0       0.18745692235777756           0.4722731589149173 0.9962926570454808 1.0000   
         H         H         1.0       0.13363277477887547           0.46680049685158875          0.9915868019303431 1.0000   
         H         H         1.0       0.17231003086237973           0.49711631936318046          0.8791164749726446 1.0000   
         H         H         1.0       0.6289838846010064  0.564357793269116   0.9191174452729491 1.0000   
         H         H         1.0       0.6667182658076719  0.6232923658113301  0.917422627849499  1.0000   
         H         H         1.0       0.5923912628690717  0.6144852909007912  0.8479192871069264 1.0000   
         H         H         1.0       0.2817858703455123  0.5507386581528668  0.9022919178412884 1.0000   
         H         H         1.0       0.2072314790777825  0.4314830957511925  0.9590622762205776 1.0000   
         H         H         1.0       0.18953422951335508           0.4074368175186271 0.013962063067118446         1.0000   
         H         H         1.0       0.6514829101695673  0.506340124371556   0.8845477032302753 1.0000   
         H         H         1.0       0.613453488959261   0.5160811309525587  0.8591094103569614 1.0000   
         H         H         1.0       0.12048156573122681           0.4490248949267275 0.05871916830476831          1.0000   
         H         H         1.0       0.14736064023047102           0.4192381571408927 0.051494750860947125         1.0000   
         H         H         1.0       0.6913581883998842  0.5441949485512637  0.9410321966630334 1.0000   
         H         H         1.0       0.703687075687712   0.5965070670793202  0.9741457270718401 1.0000   
         H         H         1.0       0.6455402017572943  0.44714299501635646           0.8797595540046879 1.0000   
         H         H         1.0       0.6987339639166872  0.447863759740499   0.8470543390443985 1.0000   
         H         H         1.0       0.7584417336931406  0.510331526858489   0.9464503773493935 1.0000   
         H         H         1.0       0.7048251779881766  0.5061662161760203  0.9772587811945922 1.0000   
         H         H         1.0       0.14074408417202022           0.38950804091587893          0.11269328088056785          1.0000   
         H         H         1.0       0.10064946104065742           0.32477518897991703          0.0929936527551023 1.0000   
         H         H         1.0       0.1953719404924208  0.3379999931167756  0.026517057812663447         1.0000   
         H         H         1.0       0.5934883463187899  0.41528335784960274           0.9176123981356579 1.0000   
         C         C         1.0       0.02445754229588748           0.6625518220465059 0.9927067059267971 1.0000   
         C         C         1.0       0.0024061218385236227         0.6476801617545931 0.024260774054067902         1.0000   
         C         C         1.0       0.9694709868868029  0.6175397620095572  0.021339506343202475         1.0000   
         C         C         1.0       0.955892847764415   0.6006848958832601  0.9849423017289316 1.0000   
         C         C         1.0       0.9789832020665463  0.6156070716923783  0.9531280863306828 1.0000   
         C         C         1.0       0.0126709436859902  0.6465687317015627  0.9566813616734869 1.0000   
         H         H         1.0       0.011752952282509721          0.6566505495898088 0.054029294259214655         1.0000   
         H         H         1.0       0.9566469899263345  0.6081537055838155  0.047021199781813294         1.0000   
         H         H         1.0       0.9761532568134219  0.6012562884929016  0.9244751335602747 1.0000   
         H         H         1.0       0.026840510486449087          0.6528337922443566 0.9302440158280781 1.0000   
         C         C         1.0       0.8907864651746646  0.5754321776754402  0.9349382087914447 1.0000   
         C         C         1.0       0.8909179215967868  0.5523781211599266  0.9514045109230352 1.0000   
         C         C         1.0       0.8607235465347588  0.5195768668720577  0.9447128015309925 1.0000   
         C         C         1.0       0.832988531708973   0.5084669429001875  0.922795937353462  1.0000   
         C         C         1.0       0.8332838025110432  0.5321967882670431  0.9062985802839558 1.0000   
         C         C         1.0       0.8614115867302629  0.566745951286555   0.9153332365562282 1.0000   
         C         C         1.0       0.9229543382633575  0.5622917063267444  0.9788714419987848 1.0000   
         C         C         1.0       0.8989688717703821  0.5486251831984563  0.01720919254344988          1.0000   
         C         C         1.0       0.8988239684783721  0.526517170435821   0.03696205647524353          1.0000   
         C         C         1.0       0.8778456310339048  0.5180966173998441  0.07145336961571713          1.0000   
         C         C         1.0       0.8574600621410328  0.5310547190820235  0.08810154426232097          1.0000   
         C         C         1.0       0.8629136235218311  0.5573819162029008  0.07313376800220217          1.0000   
         C         C         1.0       0.882336465221143   0.5655271840542192  0.03719441094243958          1.0000   
         C         C         1.0       0.9360184738858831  0.5241454336759718  0.9259162742079539 1.0000   
         C         C         1.0       0.9620392615678182  0.5192171616636461  0.903767766902014  1.0000   
         C         C         1.0       0.9948821585190449  0.5323067557695546  0.9209508875338599 1.0000   
         C         C         1.0       0.9974232041477357  0.5461166780420974  0.9593616194764736 1.0000   
         C         C         1.0       0.973087599445043   0.5521408331915736  0.9796559154547977 1.0000   
         C         C         1.0       0.9425437500446939  0.5429190427601531  0.962299626099985  1.0000   
         C         C         1.0       0.03266687228109255           0.538895618322015  0.8968976787326246 1.0000   
         C         C         1.0       0.03610733686436651           0.46376439804850556          0.811932127267325  1.0000   
         C         C         1.0       0.061391160077821416          0.4980867756110893 0.8076438386122979 1.0000   
         C         C         1.0       0.05699023041674289           0.5208844662817655 0.8313765745122574 1.0000   
         C         C         1.0       0.03052622043224207           0.511809128837255  0.8624945853735518 1.0000   
         C         C         1.0       0.006103723129430527          0.4766993232518088 0.8659608829465887 1.0000   
         C         C         1.0       0.008103478684608145          0.4524980934791098 0.8409722935748059 1.0000   
         C         C         1.0       0.06341739904717891           0.5437376319099062 0.9210652260622507 1.0000   
         C         C         1.0       0.10203356681513065           0.5664195251020516 0.9153709570631995 1.0000   
         C         C         1.0       0.12372434460733372           0.5616803614813068 0.9285653002147897 1.0000   
         C         C         1.0       0.1111670294197118  0.5357397377055864  0.9505004515912113 1.0000   
         C         C         1.0       0.07451971867845386           0.518553785832663  0.9654656762775102 1.0000   
         C         C         1.0       0.05080643351665781           0.522045089810149  0.9506562224412228 1.0000   
         C         C         1.0       0.03292729766394897           0.5727429679589082 0.8469501325594138 1.0000   
         C         C         1.0       0.045909328856016174          0.6039174217284442 0.8352268796141888 1.0000   
         C         C         1.0       0.06432016016399578           0.6340078810763411 0.8589909631817101 1.0000   
         C         C         1.0       0.0745449691597384  0.6344549507845624  0.8941403728674837 1.0000   
         C         C         1.0       0.0645719082540912  0.6048501044574799  0.9038173388900294 1.0000   
         C         C         1.0       0.04463183285121741           0.574134867995491  0.881713964681115  1.0000   
         H         H         1.0       0.9126757254727804  0.6016012772345165  0.9403551463246208 1.0000   
         H         H         1.0       0.8629124061383444  0.501848709799874   0.9555702852297795 1.0000   
         H         H         1.0       0.8110213900588175  0.4807604340021281  0.9194727711208771 1.0000   
         H         H         1.0       0.8638883616261156  0.5864853015262819  0.9032328936921277 1.0000   
         H         H         1.0       0.9106336080248568  0.5124016552273057  0.023484692775374683         1.0000   
         H         H         1.0       0.8758125338301445  0.4991511967478397  0.08563688446143858          1.0000   
         H         H         1.0       0.8525404376472427  0.5718494923698703  0.08776737534417833          1.0000   
         H         H         1.0       0.8845170678833398  0.585801861031316   0.024599998014788405         1.0000   
         H         H         1.0       0.9139601879374046  0.5176936285349104  0.9097216634081134 1.0000   
         H         H         1.0       0.9585851199043219  0.5106692338143003  0.8737262372140825 1.0000   
         H         H         1.0       0.021750784528569156          0.5569366778220753 0.9747499278316492 1.0000   
         H         H         1.0       0.9784503447123829  0.5644209894144295  0.009885410999327382         1.0000   
         H         H         1.0       0.0846661942920981  0.5069494460870028  0.7881971075268904 1.0000   
         H         H         1.0       0.08129415610810775           0.5462946165121337 0.8290460632481539 1.0000   
         H         H         1.0       0.9858235103614497  0.46790346783710857           0.8901756900116207 1.0000   
         H         H         1.0       0.9887703527230836  0.42530716056226997           0.8427387683579003 1.0000   
         H         H         1.0       0.11669941329275346           0.585889567109712  0.897070484286536  1.0000   
         H         H         1.0       0.15228832561535222           0.5794249931284008 0.9181946777388759 1.0000   
         H         H         1.0       0.06285343090391438           0.49810938765936197          0.9819256241219523 1.0000   
         H         H         1.0       0.022062402047070107          0.5033212318641586 0.9566151620714428 1.0000   
         H         H         1.0       0.014786018799042955          0.5492217595302202 0.8281714346874756 1.0000   
         H         H         1.0       0.03646905839992942           0.6049693370719882 0.8096918177488439 1.0000   
         H         H         1.0       0.0916024986330859  0.6587664221868537  0.9136900700278405 1.0000   
         H         H         1.0       0.07496202650699191           0.6090909716448846 0.9310949685336042 1.0000   
         C         C         1.0       0.7628242403328501  0.6190730031334187  0.2704341901753167 1.0000   
         C         C         1.0       0.7656079481430397  0.6479966004825921  0.2898458733478441 1.0000   
         C         C         1.0       0.7528886599329685  0.6470370732079249  0.32755993326931837          1.0000   
         C         C         1.0       0.7393362310791775  0.6186256225155804  0.346032622614069  1.0000   
         C         C         1.0       0.7464784160690421  0.5955490129326383  0.3275499662764756 1.0000   
         C         C         1.0       0.7574669989602105  0.5946836771025347  0.288633233668259  1.0000   
         H         H         1.0       0.7662130517641692  0.6656090805311115  0.27485466148713555          1.0000   
         H         H         1.0       0.751186520771734   0.6682629606622761  0.3444097913312527 1.0000   
         H         H         1.0       0.7407578021835207  0.5755466304515582  0.34177801631253596          1.0000   
         H         H         1.0       0.7604589475190215  0.575375447967166   0.2768288718311889 1.0000   
         C         C         1.0       0.6687858914016774  0.5502799708445515  0.3728889186319098 1.0000   
         C         C         1.0       0.6883764220919698  0.5771569502209705  0.4008108142866338 1.0000   
         C         C         1.0       0.6772249699910464  0.5733184128983291  0.43831470931092315          1.0000   
         C         C         1.0       0.6464194349505834  0.544517195654305   0.45026069278523806          1.0000   
         C         C         1.0       0.6279527276548907  0.5178312180357962  0.4228755914027323 1.0000   
         C         C         1.0       0.6382397983878145  0.5199774498388361  0.385078840333984  1.0000   
         C         C         1.0       0.719503456667122   0.6140470343024719  0.3880436062732561 1.0000   
         C         C         1.0       0.693530845980968   0.6275161019250137  0.3954646920566829 1.0000   
         C         C         1.0       0.6889794844433208  0.6422702170583311  0.4316097647260168 1.0000   
         C         C         1.0       0.6698284942192348  0.6565145223783656  0.43974861026965995          1.0000   
         C         C         1.0       0.16091304972214027           0.5855574556164032 0.4914801580298227 1.0000   
         C         C         1.0       0.14318392935265534           0.5970706662823214 0.47726025121117144          1.0000   
         C         C         1.0       0.6732577396464335  0.6238921208647291  0.3664535081143438 1.0000   
         C         C         1.0       0.7647593955781361  0.6200485452647716  0.4316047656230423 1.0000   
         C         C         1.0       0.8408541746264215  0.17739376541724408           0.34898869278436334          1.0000   
         C         C         1.0       0.8454431394216672  0.1908886405426242  0.3152618131694074 1.0000   
         C         C         1.0       0.8151502719452643  0.17568103513708094           0.2951917169945471 1.0000   
         C         C         1.0       0.7800453308990907  0.15010329262864275           0.3065232992241843 1.0000   
         C         C         1.0       0.7537592127545548  0.6348251067588818  0.41348723363307643          1.0000   
         C         C         1.0       0.8809327548421774  0.2278296524507835  0.30726667298836546          1.0000   
         C         C         1.0       0.8266609329820555  0.2673429621209674  0.39288676795036936          1.0000   
         C         C         1.0       0.8511429860506845  0.26334631601445674           0.4040348507998332 1.0000   
         C         C         1.0       0.8706180109069942  0.25370078259521506           0.3752663144576427 1.0000   
         C         C         1.0       0.86709890760031    0.24972017499434973           0.33531826192107994          1.0000   
         C         C         1.0       0.845108995355809   0.2578515439991762  0.3260872405106168 1.0000   
         C         C         1.0       0.8240320568947033  0.26512616223212987           0.35402731426879935          1.0000   
         C         C         1.0       0.8875687219872567  0.23213686851696097           0.26398097727884096          1.0000   
         C         C         1.0       0.8862900849417777  0.2069919189110146  0.23614036362866292          1.0000   
         C         C         1.0       0.9015865940558226  0.2128399479875273  0.20017233126031306          1.0000   
         C         C         1.0       0.9207836735111236  0.24465744326397268           0.18966008153463218          1.0000   
         C         C         1.0       0.9205559058549719  0.27008671417973634           0.2159579585979163 1.0000   
         C         C         1.0       0.9059002412617397  0.2643165087606138  0.25269981052292484          1.0000   
         C         C         1.0       0.9491569946835969  0.26897248890758285           0.3254653235511795 1.0000   
         C         C         1.0       0.9830177996266388  0.27643870454391617           0.3301841622244167 1.0000   
         C         C         1.0       0.9865105341599355  0.25003518509085043           0.3272059453696774 1.0000   
         C         C         1.0       0.9564235906425792  0.21658006533422738           0.32225771259210534          1.0000   
         C         C         1.0       0.9250602211473925  0.20995545725634793           0.30869235204385026          1.0000   
         C         C         1.0       0.9195765111320099  0.23526953553569832           0.3129701500492347 1.0000   
         H         H         1.0       0.6756446542211952  0.5516341156312393  0.3420128893326344 1.0000   
         H         H         1.0       0.6914653970986793  0.596022797128901   0.462392499445093  1.0000   
         H         H         1.0       0.6400141895345492  0.5442607254467364  0.4808206955856496 1.0000   
         H         H         1.0       0.6245020431411761  0.49883315581040183           0.3629431388806279 1.0000   
         H         H         1.0       0.7051096901016676  0.6484645730027     0.4543351507303299 1.0000   
         H         H         1.0       0.6707050654326151  0.6691780613087153  0.46719306276440264          1.0000   
         H         H         1.0       0.11270570116915679           0.5824621689160124 0.4782261743065438 1.0000   
         H         H         1.0       0.6770553296852847  0.6135027425118619  0.33771345022289356          1.0000   
         H         H         1.0       0.7571946493608702  0.5943034571025576  0.4187073570362235 1.0000   
         H         H         1.0       0.7798694746777414  0.6201022454090607  0.48248116352779397          1.0000   
         H         H         1.0       0.8186630436196985  0.183897980820605   0.26643569979773496          1.0000   
         H         H         1.0       0.7592087132625512  0.1414469569738931  0.2875306994341702 1.0000   
         H         H         1.0       0.8564754546543276  0.2648226869384296  0.43207428056987357          1.0000   
         H         H         1.0       0.8878984218696672  0.24776316198339848           0.385511352065307  1.0000   
         H         H         1.0       0.8440148899191112  0.257320209775541   0.2958660068193667 1.0000   
         H         H         1.0       0.8055361844041163  0.26809369850177744           0.3420425152584541 1.0000   
         H         H         1.0       0.8783886391876693  0.18419565532115648           0.24501491869779715          1.0000   
         H         H         1.0       0.9025559534036939  0.1917606776172275  0.18537570318549063          1.0000   
         H         H         1.0       0.9387354536370797  0.29613608223492377           0.20947658858338852          1.0000   
         H         H         1.0       0.9132731673800025  0.28799796547318635           0.2721464227212577 1.0000   
         H         H         1.0       0.9466408065337015  0.29012119263632263           0.3268941488721924 1.0000   
         H         H         1.0       0.008812701654045352          0.3030500231274465 0.33273211619175497          1.0000   
         H         H         1.0       0.9565022170499761  0.19588548748455886           0.32181155400587236          1.0000   
         H         H         1.0       0.9038636783810494  0.18325116265130947           0.2994081599447401 1.0000   
         C         C         1.0       0.13060861080845187           0.4510310019691292 0.2138484939731592 1.0000   
         C         C         1.0       0.10899674688424521           0.42184850177124716          0.1865505734746783 1.0000   
         C         C         1.0       0.10347260756778542           0.3914999519676307 0.18886246671950427          1.0000   
         C         C         1.0       0.11513986860053449           0.3863761831072835 0.21799820538149683          1.0000   
         C         C         1.0       0.14097941289601956           0.41716674391708664          0.24020567531685677          1.0000   
         C         C         1.0       0.14877785308973523           0.4479173060621506 0.2391093451591307 1.0000   
         H         H         1.0       0.09729355186452682           0.42445377173116655          0.16347316820293165          1.0000   
         H         H         1.0       0.08632013947071937           0.37093858493547505          0.16790395404414152          1.0000   
         H         H         1.0       0.1491290243745862  0.4143089635787022  0.2651358635172679 1.0000   
         H         H         1.0       0.16410671961770662           0.4695562511929176 0.2600914697390245 1.0000   
         C         C         1.0       0.1631010025663815  0.35917222569097185           0.19909060605362794          1.0000   
         C         C         1.0       0.13379163411016082           0.3457462019313231 0.22737997853572922          1.0000   
         C         C         1.0       0.13473758074562414           0.32623761113517036          0.24873739894799166          1.0000   
         C         C         1.0       0.16274006820010034           0.32109748354632295          0.244482805296918  1.0000   
         C         C         1.0       0.19148549228139888           0.33583210243478623          0.21711616291723979          1.0000   
         C         C         1.0       0.1904305217271891  0.3544304157187669  0.19372821072583518          1.0000   
         C         C         1.0       0.10073744721980993           0.35084114806941796          0.23155531217357195          1.0000   
         C         C         1.0       0.06704410990116427           0.31689397516201256          0.20948444920751658          1.0000   
         C         C         1.0       0.03166946514184121           0.2968720831147247 0.22753276711158332          1.0000   
         C         C         1.0       0.002736914979126981          0.27088578505386124          0.2062847525301126 1.0000   
         C         C         1.0       0.00734186121291458           0.26604130644651575          0.16768221659023705          1.0000   
         C         C         1.0       0.041843533583082904          0.2825293893278089 0.1488789267683963 1.0000   
         C         C         1.0       0.07165010086087342           0.30921415492809   0.17037450321400055          1.0000   
         C         C         1.0       0.10129745015369451           0.3608567001109669 0.30850401254130855          1.0000   
         C         C         1.0       0.09473542475441299           0.3741173318988724 0.3438548763944755 1.0000   
         C         C         1.0       0.0697343193139155  0.3831676540897752  0.3486034071330897 1.0000   
         C         C         1.0       0.053034229594770776          0.37782245058560915          0.31513864388436436          1.0000   
         C         C         1.0       0.059431821183154154          0.3638748809361437 0.2811257479836116 1.0000   
         C         C         1.0       0.08620273082697061           0.35761645119370566          0.27678330815823976          1.0000   
         C         C         1.0       0.06081619839655339           0.40200436373505327          0.3855178006330209 1.0000   
         C         C         1.0       0.05047467532187455           0.3631593414104318 0.48988443619020555          1.0000   
         C         C         1.0       0.06366567372198628           0.39705759266106927          0.4920569637450571 1.0000   
         C         C         1.0       0.06441389307449241           0.40757855856860203          0.458626870350832  1.0000   
         C         C         1.0       0.05596779886715564           0.38686022110283536          0.4230149313195431 1.0000   
         C         C         1.0       0.04001254628468609           0.353925257868295  0.4235478026999171 1.0000   
         C         C         1.0       0.03996066286512279           0.34233702084456935          0.45504475405914485          1.0000   
         C         C         1.0       0.02210295227112624           0.3957664987749768 0.38862147918762247          1.0000   
         C         C         1.0       0.01995908074480579           0.4244018346833565 0.3990556283794152 1.0000   
         C         C         1.0       0.9866852019427163  0.41950529375644263           0.39582566064807795          1.0000   
         C         C         1.0       0.9573366434246962  0.3880680631923011  0.38256531605273114          1.0000   
         C         C         1.0       0.9589878160795406  0.35968508950423517           0.3772186109231162 1.0000   
         C         C         1.0       0.9904326079144691  0.3636351875164514  0.3812434962924298 1.0000   
         C         C         1.0       0.1327005540456816  0.45270497110715946           0.3932376241763658 1.0000   
         C         C         1.0       0.1659707211921979  0.47975013458267063           0.37993385535861773          1.0000   
         C         C         1.0       0.16704504926753816           0.497605492059599  0.35571511602647676          1.0000   
         C         C         1.0       0.13274963551307173           0.48693108781311156          0.34609507220599484          1.0000   
         C         C         1.0       0.100822677574391   0.4595907023665337  0.3577800154022243 1.0000   
         C         C         1.0       0.09900749603368553           0.43950397731873964          0.3803166326677279 1.0000   
         H         H         1.0       0.1644941337407384  0.37447844102296063           0.18079161867000929          1.0000   
         H         H         1.0       0.11266996598856127           0.3124804065513754 0.2707161541767953 1.0000   
         H         H         1.0       0.16142639327287855           0.3048048927295169 0.2620348601196788 1.0000   
         H         H         1.0       0.2129663544918754  0.3687705117389989  0.1724662361396986 1.0000   
         H         H         1.0       0.0279325407958797  0.30129453952515384           0.2574582448693942 1.0000   
         H         H         1.0       0.975773377530338   0.2547582767859415  0.22135207015354152          1.0000   
         H         H         1.0       0.04833908568905576           0.2814840533858478 0.11701769606895684          1.0000   
         H         H         1.0       0.09868772111675672           0.32557155491934725          0.1573466484183683 1.0000   
         H         H         1.0       0.12827985981657042           0.36588075711823026          0.30340405734098985          1.0000   
         H         H         1.0       0.10904989608428894           0.378921865458571  0.3684973213662001 1.0000   
         H         H         1.0       0.034041386305539545          0.3839547622347695 0.3150025730204151 1.0000   
         H         H         1.0       0.04934790203646089           0.3662311614658394 0.2562488154510792 1.0000   
         H         H         1.0       0.07044637955463795           0.4138333490556169 0.5193425723779861 1.0000   
         H         H         1.0       0.07049852699256842           0.43219864453534945          0.4616703523509205 1.0000   
         H         H         1.0       0.028847842652108824          0.33694561971639514          0.3973779392367278 1.0000   
         H         H         1.0       0.029888961424570537          0.3160623799790951 0.45096757069429755          1.0000   
         H         H         1.0       0.04389269839376286           0.4490004026519899 0.4066581157406889 1.0000   
         H         H         1.0       0.9815184136543013  0.4390551928931767  0.4015961301195298 1.0000   
         H         H         1.0       0.9357606578045026  0.33401699145409897           0.3716979832461653 1.0000   
         H         H         1.0       0.9929795135627214  0.34326633154227193           0.36854954833194903          1.0000   
         H         H         1.0       0.13356034185135623           0.4390436402640196 0.41153095006431467          1.0000   
         H         H         1.0       0.19130509048609734           0.482351668735981  0.381773597917545  1.0000   
         H         H         1.0       0.12917413252208254           0.49789591265819505          0.3253136178534701 1.0000   
         H         H         1.0       0.07670543092772864           0.4516151777141226 0.34665358990796263          1.0000   
         C         C         1.0       0.22553345853611684           0.2570066442656705 0.5191813403764731 1.0000   
         C         C         1.0       0.23581636218359403           0.23884226713887277          0.4909582924401945 1.0000   
         C         C         1.0       0.20940744299483427           0.21099548638239427          0.4668117364835454 1.0000   
         C         C         1.0       0.17419319845243852           0.20195284392208768          0.46924529212381455          1.0000   
         C         C         1.0       0.1638006078002554  0.2195320548153908  0.4984588952716649 1.0000   
         C         C         1.0       0.18886519434692817           0.2473205880557393 0.5216976729387265 1.0000   
         H         H         1.0       0.2644184387569619  0.24548060803341834           0.4855180212735332 1.0000   
         H         H         1.0       0.2185060686206186  0.20019028711916564           0.44240260314092117          1.0000   
         H         H         1.0       0.1339518524017933  0.2114054394575269  0.498980282246669  1.0000   
         H         H         1.0       0.18456818471581782           0.26493872600472096          0.5429337828187    1.0000   
         C         C         1.0       0.9479098190621462  0.4579106039995069  0.4896067396227767 1.0000   
         C         C         1.0       0.962333144668357   0.4868895085560478  0.4719905897691468 1.0000   
         C         C         1.0       0.9515351953041449  0.48144277943563757           0.43512576292638544          1.0000   
         C         C         1.0       0.9273032962693998  0.4493300060368856  0.4179655615589745 1.0000   
         C         C         1.0       0.9122962173223509  0.4214254625026043  0.4352487681953177 1.0000   
         C         C         1.0       0.9233862160505013  0.42602846228514407           0.4715993789817592 1.0000   
         C         C         1.0       0.14149247433349665           0.16948973298230208          0.44341451115102176          1.0000   
         C         C         1.0       0.14494889750501372           0.1392184287270125 0.42379069048479817          1.0000   
         C         C         1.0       0.12186681419505918           0.11676678528609587          0.3945350458103695 1.0000   
         C         C         1.0       0.10843527209348003           0.08281503528660639          0.38737678759198985          1.0000   
         C         C         1.0       0.12020755508867387           0.07105539513036252          0.4082771554710001 1.0000   
         C         C         1.0       0.1483286090241447  0.0940117807979517  0.43194654172667224          1.0000   
         C         C         1.0       0.1595866570556641  0.1267809591390825  0.4415467534290684 1.0000   
         C         C         1.0       0.11524927748715053           0.19097473519812969          0.40517922515261695          1.0000   
         C         C         1.0       0.1121441132938128  0.1985031415731541  0.3711134199985939 1.0000   
         C         C         1.0       0.13921801152859903           0.20331226661944343          0.34083882916244895          1.0000   
         C         C         1.0       0.17263495233917547           0.20951431553234465          0.34749243274234975          1.0000   
         C         C         1.0       0.1729358407663335  0.1995411905829173  0.38055787006793423          1.0000   
         C         C         1.0       0.14477010351665975           0.18965592105505755          0.4097923792705962 1.0000   
         C         C         1.0       0.13412286878568946           0.20114555898489814          0.2976122428769017 1.0000   
         C         C         1.0       0.10932192269728613           0.0988830457864045 0.26418630702788154          1.0000   
         C         C         1.0       0.08150364691159062           0.1030242258070675 0.27905996636851554          1.0000   
         C         C         1.0       0.08933158186869106           0.13495884042271755          0.28909042676397917          1.0000   
         C         C         1.0       0.12434614404506306           0.16422666434838576          0.282252210003311  1.0000   
         C         C         1.0       0.15250819294059093           0.16004497379414603          0.26312517757999393          1.0000   
         C         C         1.0       0.14443367872601676           0.12756176289208887          0.2541394991616519 1.0000   
         C         C         1.0       0.1660524714492171  0.2294339972536781  0.2718998656807152 1.0000   
         C         C         1.0       0.19596589335831704           0.2614056085321993 0.28402987360765597          1.0000   
         C         C         1.0       0.2151164997570878  0.28638282090088624           0.26110305907082604          1.0000   
         C         C         1.0       0.20949043427013625           0.27995219525968895          0.22360589125513586          1.0000   
         C         C         1.0       0.18137211899704742           0.2487083514041539 0.20863946847485487          1.0000   
         C         C         1.0       0.16152423402172866           0.22273639134350387          0.2320857100039932 1.0000   
         C         C         1.0       0.07723966602653065           0.19375543676912246          0.2739203526787874 1.0000   
         C         C         1.0       0.05508685869423968           0.20388513349976797          0.27294605733504085          1.0000   
         C         C         1.0       0.06257425742328815           0.23547592518329247          0.29198337690451703          1.0000   
         C         C         1.0       0.09124665994137726           0.25316398920218436          0.31608887976088396          1.0000   
         C         C         1.0       0.1140836089011823  0.2434571424538765  0.3169763358024415 1.0000   
         C         C         1.0       0.10760374830959396           0.2127447200950014 0.2945369116501462 1.0000   
         H         H         1.0       0.9593336302715803  0.45839150712637583           0.5153824490074606 1.0000   
         H         H         1.0       0.9625208448489624  0.5032660251647297  0.42105948507583474          1.0000   
         H         H         1.0       0.9222845731471135  0.44639472142499803           0.38845424729972267          1.0000   
         H         H         1.0       0.9178123324635972  0.40370374701586703           0.47991352270211646          1.0000   
         H         H         1.0       0.10747108228128432           0.12331075880997379          0.3803069542616738 1.0000   
         H         H         1.0       0.09073737304438478           0.06750171280794713          0.3628177452935781 1.0000   
         H         H         1.0       0.15653938018067248           0.0832445056423401 0.4503044236204453 1.0000   
         H         H         1.0       0.17368603208128053           0.14045777895083017          0.4686362753011279 1.0000   
         H         H         1.0       0.09300909983174455           0.18613789137286912          0.42846515364160564          1.0000   
         H         H         1.0       0.08582506534803747           0.19468188475639311          0.36784146887680574          1.0000   
         H         H         1.0       0.19556634934810835           0.2177330358685617 0.3254069566759756 1.0000   
         H         H         1.0       0.1961345455166259  0.19866239259716675           0.38260760346762224          1.0000   
         H         H         1.0       0.8957791089506432  0.5728481676505308  0.38985249872214545          1.0000   
         H         H         1.0       0.07110072428924408           0.1388045799920928 0.30654345449127296          1.0000   
         H         H         1.0       0.1812099947837571  0.18240743063801293           0.2589087487357764 1.0000   
         H         H         1.0       0.16470233986896465           0.12295769354139276          0.24474469091428644          1.0000   
         H         H         1.0       0.19772181252245113           0.2701038162205328 0.314189210433371  1.0000   
         H         H         1.0       0.23494490736862494           0.31080382864708994          0.2735382002037437 1.0000   
         H         H         1.0       0.17776461424638224           0.243095466548455  0.17792320605836678          1.0000   
         H         H         1.0       0.13864812539546145           0.19601955537884239          0.21865722600220358          1.0000   
         H         H         1.0       0.0735280042693438  0.17096612209424156           0.2556656233410104 1.0000   
         H         H         1.0       0.03136307320865206           0.18698846223575719          0.25534690136924143          1.0000   
         H         H         1.0       0.09822546031523838           0.27742857708967283          0.3305791136070486 1.0000   
         H         H         1.0       0.1374233574414898  0.26207283406106086           0.3326091527964421 1.0000   
         C         C         1.0       0.9592779276595603  0.5594424577311389  0.2766027922613584 1.0000   
         C         C         1.0       0.9802494095514815  0.5822493390923126  0.24957647831268776          1.0000   
         C         C         1.0       0.015301074363084588          0.5896296759524323 0.23834482922128428          1.0000   
         C         C         1.0       0.029383312048763877          0.5745065571771905 0.24982409208985262          1.0000   
         C         C         1.0       0.007393048042215744          0.5526472994121542 0.2765416318802499 1.0000   
         C         C         1.0       0.9732296593057226  0.545138945815627   0.28943154715279373          1.0000   
         H         H         1.0       0.9677213927702261  0.5918788042545943  0.23738084025301542          1.0000   
         H         H         1.0       0.03240594882429204           0.6116360963228584 0.22302151825342434          1.0000   
         H         H         1.0       0.01769511809586577           0.5401253026663226 0.2861005013498985 1.0000   
         H         H         1.0       0.9578641913194843  0.5265909224754934  0.31116897209183414          1.0000   
         C         C         1.0       0.10913073336456969           0.5650332765966657 0.2542009747077479 1.0000   
         C         C         1.0       0.08073458643495734           0.5597933561015696 0.23588110650307714          1.0000   
         C         C         1.0       0.05676761533152863           0.5276718360553883 0.21787795722802653          1.0000   
         C         C         1.0       0.06290830629775579           0.5029700116338621 0.2162513569061994 1.0000   
         C         C         1.0       0.09093979174250122           0.5089285953379394 0.2343981619819555 1.0000   
         C         C         1.0       0.1164919854017068  0.5411701774842942  0.2504205376100083 1.0000   
         C         C         1.0       0.07256640606692244           0.5882032070978356 0.24131733379243783          1.0000   
         C         C         1.0       0.08810946131530772           0.6171497339629708 0.2773651803424555 1.0000   
         C         C         1.0       0.08643833407505097           0.6095528339387642 0.31442693457594467          1.0000   
         C         C         1.0       0.7172178946005591  0.6251597779417714  0.17330737670412286          1.0000   
         C         C         1.0       0.7104657523252381  0.6063342197423499  0.2002209021824695 1.0000   
         C         C         1.0       0.6822955760285464  0.598165272500953   0.2305632446723577 1.0000   
         C         C         1.0       0.09453071149176862           0.6483484140181289 0.27418421252297703          1.0000   
         C         C         1.0       0.07032404152696592           0.5900383083165464 0.1679774884836725 1.0000   
         C         C         1.0       0.08761201609122904           0.6079213612698624 0.13606519366840986          1.0000   
         C         C         1.0       0.12468282415900012           0.6332052346597488 0.13334395277400146          1.0000   
         C         C         1.0       0.14381270604641538           0.6398003119800251 0.164702138268683  1.0000   
         C         C         1.0       0.12765015729032103           0.6250256214548674 0.19750271204828052          1.0000   
         C         C         1.0       0.08992377107819904           0.6018471214910898 0.20078103388667815          1.0000   
         C         C         1.0       0.14217508622629893           0.6449212096201731 0.09149696677343155          1.0000   
         C         C         1.0       0.15298009626925935           0.5601349995070874 0.06842816989819478          1.0000   
         C         C         1.0       0.12095020277113888           0.5559611085699037 0.060124298105107554         1.0000   
         C         C         1.0       0.11955923392072698           0.5835654947425024 0.062174013549427976         1.0000   
         C         C         1.0       0.14952597649349464           0.6164591169728372 0.0743751873604852 1.0000   
         C         C         1.0       0.18022384268410985           0.6197650985885836 0.08602907509056434          1.0000   
         C         C         1.0       0.18379230435140892           0.5926951993433046 0.07836289205184799          1.0000   
         C         C         1.0       0.17649147204036075           0.6837346118899557 0.09384950731272124          1.0000   
         C         C         1.0       0.17716533650064603           0.7077767361983632 0.12275529454428602          1.0000   
         C         C         1.0       0.13222755505208927           0.030872955290600208         0.1420615961337266 1.0000   
         C         C         1.0       0.16860690050778793           0.04172910592690959          0.13281029788201648          1.0000   
         C         C         1.0       0.17472441126795157           0.022031991631483273         0.10253922058249709          1.0000   
         C         C         1.0       0.20878892768188662           0.6949729872395722 0.06939291177621998          1.0000   
         C         C         1.0       0.12563026933463228           0.6452966384826606 0.02718213534278302          1.0000   
         C         C         1.0       0.11401806513023782           0.6549889621750848 0.005629919272633677         1.0000   
         C         C         1.0       0.09727654735498037           0.6715346107494933 0.022539129836721683         1.0000   
         C         C         1.0       0.08932490102496304           0.6731846245613421 0.0610770614767544 1.0000   
         C         C         1.0       0.09807289304614697           0.6605280809979224 0.08399672423975524          1.0000   
         C         C         1.0       0.11821123625225227           0.6468201842021252 0.06588876622177131          1.0000   
         H         H         1.0       0.13038052398122146           0.5909523389343508 0.26556896130911695          1.0000   
         H         H         1.0       0.03733194089522507           0.5251260439789293 0.20207665377719303          1.0000   
         H         H         1.0       0.04311840664822508           0.47733917372604184          0.20235789869514045          1.0000   
         H         H         1.0       0.1427505447885371  0.5487980631633678  0.258111313764182  1.0000   
         H         H         1.0       0.07444923253666791           0.5834755053058918 0.3170543141168337 1.0000   
         H         H         1.0       0.7396184493967581  0.632465826396766   0.15077971692049252          1.0000   
         H         H         1.0       0.679379731078041   0.5851851653253517  0.2536089970497564 1.0000   
         H         H         1.0       0.09393988294661804           0.6542909544804295 0.24810042230522666          1.0000   
         H         H         1.0       0.042241760312472065          0.5672242820103579 0.16774424504755492          1.0000   
         H         H         1.0       0.07068281062200565           0.5985825824547434 0.11196584665464758          1.0000   
         H         H         1.0       0.1732821679784995  0.6607008896440213  0.1635311888223497 1.0000   
         H         H         1.0       0.14248824683041006           0.6338218808092438 0.22256552016578943          1.0000   
         H         H         1.0       0.09522486391371388           0.5303731741904726 0.055299523877446966         1.0000   
         H         H         1.0       0.09403447683027166           0.5781702767383411 0.06003912830897917          1.0000   
         H         H         1.0       0.2031950536811633  0.6432832060335887  0.0988071371685657 1.0000   
         H         H         1.0       0.20725333412819458           0.5981002289135795 0.0898002011557959 1.0000   
         H         H         1.0       0.1535869778269323  0.7029114669833344  0.14165388713701632          1.0000   
         H         H         1.0       0.12436637548105312           0.04358623307260379          0.1670271173924455 1.0000   
         H         H         1.0       0.20428546448829765           0.03134909798289674          0.09553626159565254          1.0000   
         H         H         1.0       0.20711385761529977           0.6759032752963303 0.044764174733968654         1.0000   
         H         H         1.0       0.1394677512380964  0.6346579279586647  0.011401794434630741         1.0000   
         H         H         1.0       0.12146230948246806           0.6527116573307481 0.9750009728146826 1.0000   
         H         H         1.0       0.07575614148369514           0.6852395864728816 0.07502368650266944          1.0000   
         H         H         1.0       0.08821147336090984           0.660583646645709  0.11367033875296473          1.0000   
         C         C         1.0       0.9222715125787763  0.5521606047264399  0.293124602645387  1.0000   
         C         C         1.0       0.09888057788114968           0.06207762690541885          0.2534258192288384 1.0000   
         H         H         1.0       0.15307980857199488           0.07559002730624265          0.2649708990092094 1.0000   
         H         H         1.0       0.903045627510265   0.5445635036364749  0.27026310823163074          1.0000   
         H         H         1.0       0.8978080080004207  0.577680739863306   0.32597663687241935          1.0000   
         H         H         1.0       0.0976973014334388  0.05457996519772944           0.22331844398059586          1.0000   
         C         C         1.0       0.09745266308512157           0.4812953706902779 0.2352187900156521 1.0000   
         C         C         1.0       0.13057088853387433           0.4818262378109688 0.2122961096545614 1.0000   
         H         H         1.0       0.09566148478990422           0.47771988599072696          0.2655169925638557 1.0000   
         H         H         1.0       0.07200777378333645           0.45723214370621945          0.22372046106725751          1.0000   
         H         H         1.0       0.1274522628520216  0.48274070347818004           0.18292091747472675          1.0000   
         H         H         1.0       0.15486567973099707           0.5075282661185161 0.22050170756511012          1.0000   
         C         C         1.0       0.9224792782149602  0.385092693513217   0.37699659192440393          1.0000   
         C         C         1.0       0.8965400700834328  0.3855009635899341  0.4103550964817326 1.0000   
         H         H         1.0       0.9303437325892354  0.40154626157557866           0.35636437428749623          1.0000   
         H         H         1.0       0.9069633521728382  0.3609148122833856  0.35810039030168694          1.0000   
         H         H         1.0       0.8913783115377092  0.3667927019409578  0.4287195872297954 1.0000   
         H         H         1.0       0.8697788833709966  0.3731198677492062  0.3990914991756588 1.0000   
         C         C         1.0       0.22854191478683683           0.33869841377496285          0.21272457444035786          1.0000   
         C         C         1.0       0.23281146692426624           0.3085008456278488 0.19731151871173755          1.0000   
         H         H         1.0       0.24175214614970786           0.3510929075285248 0.2401514866563026 1.0000   
         H         H         1.0       0.24757115021910736           0.36012101072939523          0.19359910779652312          1.0000   
         H         H         1.0       0.2618743319410721  0.3184916708142909  0.19945886833861629          1.0000   
         H         H         1.0       0.22619143516367024           0.30024188477246383          0.16457386597257287          1.0000   
         C         C         1.0       0.766769502130118   0.6137713240373713  0.22380303403788313          1.0000   
         C         C         1.0       0.7319289944761004  0.5908396325175397  0.20134400301359734          1.0000   
         H         H         1.0       0.7775941203147606  0.6375256395079644  0.2143287680459812 1.0000   
         H         H         1.0       0.7864673909974038  0.6061080283861379  0.21422499953250385          1.0000   
         H         H         1.0       0.7149233638793847  0.566333346886543   0.21310728960189587          1.0000   
         H         H         1.0       0.7398586504721507  0.5854648089386566  0.17089270345481736          1.0000   
         C         C         1.0       0.14011946728336366           0.5484278642437315 0.4929571956225667 1.0000   
         C         C         1.0       0.10500716957451739           0.03418422303119396          0.40260269919185315          1.0000   
         H         H         1.0       0.15735501333942192           0.5436067796902211 0.5040916282422419 1.0000   
         H         H         1.0       0.11561070582476374           0.5421401632924491 0.5127709357472767 1.0000   
         H         H         1.0       0.07720519349593524           0.01907026050869764          0.4161516556874895 1.0000   
         H         H         1.0       0.11950735365042786           0.028968452673242558         0.4181616591573277 1.0000   
         C         C         1.0       0.02359998027520005           0.25683377335598284          0.3300574441537451 1.0000   
         C         C         1.0       0.04151452920490106           0.24987155253421653          0.2897474982846393 1.0000   
         H         H         1.0       0.04331268527750032           0.2821687940440801 0.34824081521047784          1.0000   
         H         H         1.0       0.015369938212116185          0.23836486566441858          0.34993052453552803          1.0000   
         H         H         1.0       0.017484688189139064          0.2313061794948483 0.27193580552259816          1.0000   
         H         H         1.0       0.054989487683892335          0.27101729891795906          0.27397115261230526          1.0000   
         C         C         1.0       0.943359442704525   0.25078409988237893           0.15058831055173272          1.0000   
         C         C         1.0       0.9742027854940942  0.24295961238483382           0.14424401409851417          1.0000   
         H         H         1.0       0.9214976245197596  0.23347761716897636           0.12628664783947552          1.0000   
         H         H         1.0       0.9591511806691856  0.27856785673517725           0.1482898933775676 1.0000   
         H         H         1.0       0.9835464670057756  0.24065610947078128           0.11348148153506331          1.0000   
         H         H         1.0       0.9648316161517378  0.21839602537388111           0.14862585827467867          1.0000   
         C         C         1.0       0.5952682871566879  0.4842161247122029  0.4356942180973239 1.0000   
         C         C         1.0       0.20629243993283142           0.524928118986312  0.336571863686329  1.0000   
         H         H         1.0       0.18208361051719257           0.5303527352462997 0.2936637842605638 1.0000   
         H         H         1.0       0.6036835911173819  0.4755891533328937  0.45448269665806135          1.0000   
         H         H         1.0       0.5679135414096658  0.5052513861130749  0.47634857396436464          1.0000   
         H         H         1.0       0.21822379427647198           0.5116070777861148 0.3179612023969458 1.0000   
         C         C         1.0       0.09448380397019562           0.6922803718545057 0.9994537345215944 1.0000   
         C         C         1.0       0.0621130002494088  0.6953174087573718  0.003263961095933965         1.0000   
         H         H         1.0       0.1202345754046954  0.7178990821474253  0.004174036272997617         1.0000   
         H         H         1.0       0.09800516081679378           0.6853689898779931 0.9679357589702199 1.0000   
         H         H         1.0       0.07087042499615936           0.7158283501666687 0.985844179559318  1.0000   
         H         H         1.0       0.05692464511137185           0.7072618970260985 0.03242450274894604          1.0000   
         C         C         1.0       0.1539894022853463  0.5287885065619958  0.0630986079247513 1.0000   
         C         C         1.0       0.1444858565577194  0.5131552003838251  0.1001060099932467 1.0000   
         H         H         1.0       0.13481395795545814           0.5089327641074268 0.04368098837320722          1.0000   
         H         H         1.0       0.18246194589651688           0.5358046447710959 0.049051186783959144         1.0000   
         H         H         1.0       0.1132432974609896  0.49457549352287994           0.10397448431080125          1.0000   
         H         H         1.0       0.15454151881036693           0.5313113008175007 0.12623130191068177          1.0000   
         C         C         1.0       0.7703320095572381  0.4839756707089312  0.8691014219410792 1.0000   
         C         C         1.0       0.8076238948771598  0.5209639678153336  0.8772260499462168 1.0000   
         H         H         1.0       0.7688064747143655  0.4799191248090968  0.8383279464988399 1.0000   
         H         H         1.0       0.7759693558296604  0.4646477203134699  0.8736126112425967 1.0000   
         H         H         1.0       0.801037472671196   0.5400742527052242  0.8795686347621984 1.0000   
         H         H         1.0       0.8249181222596792  0.5259529989102123  0.8493244403253418 1.0000   
         C         C         1.0       0.11872274159841933           0.4879295019730898 0.9382414130844969 1.0000   
         C         C         1.0       0.13342905745716993           0.524416128110575  0.9595013197276048 1.0000   
         H         H         1.0       0.11251785604733522           0.4842166812683644 0.9081303773982952 1.0000   
         H         H         1.0       0.09213091544283314           0.46781392289289303          0.954255743303789  1.0000   
         H         H         1.0       0.1342256110199922  0.5278203098447943  0.9907134719920159 1.0000   
         H         H         1.0       0.16207215174170098           0.5433292797543363 0.9506704795943914 1.0000   
         C         C         1.0       0.198345134314861   0.09945589558442537           0.180715018645488  1.0000   
         C         C         1.0       0.20353600796316007           0.07232023046023263          0.153114002535383  1.0000   
         H         H         1.0       0.22431358431193682           0.11563851991637808          0.1954477206030274 1.0000   
         H         H         1.0       0.17658370530366074           0.08889859223307252          0.20527772376336006          1.0000   
         H         H         1.0       0.22385631883447    0.08662719386089046           0.1307462120678744 1.0000   
         H         H         1.0       0.2147233383724496  0.06171956609344731           0.16515922259529675          1.0000   
         C         C         1.0       0.12435381952298741           0.2616148465169887 0.048871992249803986         1.0000   
         C         C         1.0       0.12159050274241356           0.2905673020533186 0.03763961272221361          1.0000   
         H         H         1.0       0.10557615284834099           0.23617509246521567          0.032188553518121  1.0000   
         H         H         1.0       0.11354550399001084           0.2581333605079004 0.07966091386756924          1.0000   
         H         H         1.0       0.09217132931647298           0.2814378586707035 0.044442372928482854         1.0000   
         H         H         1.0       0.12340478169117475           0.29066546539814453          0.005827145020196101         1.0000   
         C         C         1.0       0.6533805465637936  0.6637085881631536  0.8917679090687904 1.0000   
         C         C         1.0       0.2412814372909624  0.6239248760248978  0.9638346570272964 1.0000   
         H         H         1.0       0.6362860648729477  0.668376102909026   0.8813656791295809 1.0000   
         H         H         1.0       0.6791593198730566  0.6734813125100032  0.8714317783155543 1.0000   
         H         H         1.0       0.21498351302259722           0.6046155841508307 0.978324253534297  1.0000   
         H         H         1.0       0.24398973443030014           0.6126485046552117 0.9339223461015117 1.0000   
         C         C         1.0       0.791040488569655   0.5018559860729945  0.12257130249632175          1.0000   
         C         C         1.0       0.8335704239475602  0.518758943464594   0.12569977083894224          1.0000   
         H         H         1.0       0.7724482166814741  0.49402181017082053           0.1497289279564662 1.0000   
         H         H         1.0       0.7827918179698673  0.5188654705032957  0.11990377824480825          1.0000   
         H         H         1.0       0.8357900232633032  0.5009256752286576  0.13809639151497888          1.0000   
         H         H         1.0       0.8422351250211866  0.5407687706762421  0.14796096059391162          1.0000   
         C         C         1.0       0.05290721729594261           0.1642080128353284 0.08448646477484889          1.0000   
         C         C         1.0       0.01648784526060143           0.12813952142589335          0.0849802399019095 1.0000   
         H         H         1.0       0.05286172319734739           0.18047178667765165          0.10896138169121516          1.0000   
         H         H         1.0       0.049083060669288914          0.1750678692882283 0.06262595314707475          1.0000   
         H         H         1.0       0.9931190960208007  0.13074259301880356           0.08817610073383397          1.0000   
         H         H         1.0       0.012505215640506107          0.11893060343973505          0.11266665407519794          1.0000   
         C         C         1.0       0.042254273097228845          0.3468313963087758 0.5278553940240093 1.0000   
         C         C         1.0       0.07478888965225217           0.35495154138063967          0.5469166914966067 1.0000   
         H         H         1.0       0.027055050614388954          0.35603168451498846          0.54910081770022   1.0000   
         H         H         1.0       0.021837515687433307          0.3183781275585711 0.5221088499755445 1.0000   
         H         H         1.0       0.09136664813410067           0.34550784807408536          0.5278440474273336 1.0000   
         H         H         1.0       0.062176109223027964          0.34247113856773737          0.5725646153023705 1.0000   
         C         C         1.0       0.24483287802490405           0.2899733712808408 0.5883271186935621 1.0000   
         C         C         1.0       0.2522180885673042  0.29256874826016027           0.5454927810631088 1.0000   
         H         H         1.0       0.21499783072977885           0.28128128770320093          0.5971919228987297 1.0000   
         H         H         1.0       0.2587135880240048  0.3147036365372912  0.6065824885505429 1.0000   
         H         H         1.0       0.28253506932749817           0.30304333681890044          0.5360884414752514 1.0000   
         H         H         1.0       0.24660699688551535           0.31168701539381233          0.5391666768420948 1.0000   
         C         C         1.0       0.8030319948924771  0.2751414156492494  0.46509570604317496          1.0000   
         C         C         1.0       0.8007715406405703  0.274363198716725   0.4217482433533693 1.0000   
         H         H         1.0       0.8311938507831065  0.29286627834858364           0.4724114630670619 1.0000   
         H         H         1.0       0.796033348472817   0.24885382345068335           0.46347296840916424          1.0000   
         H         H         1.0       0.8067566360061986  0.29924414460313403           0.4166885467355138 1.0000   
         H         H         1.0       0.7711066333621299  0.25425918323558827           0.4109552955361645 1.0000   
         C         C         1.0       0.044654567763787956          0.43885727794526647          0.7886734757572202 1.0000   
         C         C         1.0       0.07403692928636829           0.4390594392069512 0.807797950797036  1.0000   
         H         H         1.0       0.01931781329468607           0.4131266930904055 0.7841860936262142 1.0000   
         H         H         1.0       0.05380589066496744           0.4451208138470321 0.7586343239052434 1.0000   
         H         H         1.0       0.0769857628746855  0.4509777899537002  0.84008704116152   1.0000   
         H         H         1.0       0.06272214696215306           0.41162346839706415          0.8108731298809212 1.0000   
         C         C         1.0       0.7989349128107051  0.40002039560801145           0.8285973105851663 1.0000   
         C         C         1.0       0.8163465589294902  0.4143449726645434  0.8662423749790095 1.0000   
         H         H         1.0       0.42081906206547814           0.3430962834062324 0.8932941404009382 1.0000   
         H         H         1.0       0.7863278637719451  0.4144591590238076  0.8264066574164894 1.0000   
         H         H         1.0       0.8376733083945419  0.4095572494749151  0.8674197411868939 1.0000   
         H         H         1.0       0.8313011404798173  0.44202801384034884           0.8707233809792804 1.0000   
         C         C         1.0       0.3036656583333799  0.45919284732896476           0.7999657154709456 1.0000   
         C         C         1.0       0.274834526301988   0.4439419923146403  0.7690322424699113 1.0000   
         H         H         1.0       0.4632167094980446  0.42084055608949744           0.7519217080774709 1.0000   
         H         H         1.0       0.3062586422760978  0.43932123895500563           0.80250108575641   1.0000   
         H         H         1.0       0.24884363798815956           0.42026429207186305          0.7776097569138988 1.0000   
         H         H         1.0       0.2873688825183103  0.43897014886151325           0.740268445101195  1.0000   
         C         C         1.0       0.18537216114180577           0.11224352915402847          0.6933503732388029 1.0000   
         C         C         1.0       0.21218498997963198           0.11081930645315419          0.6700989864483266 1.0000   
         C         C         1.0       0.23995816033788353           0.13808786496280656          0.6519595251585991 1.0000   
         C         C         1.0       0.2403651648737597  0.16668971233138996           0.6554315301268618 1.0000   
         C         C         1.0       0.21340328369097228           0.16795123996508554          0.6798795547470124 1.0000   
         C         C         1.0       0.18565808949528928           0.1404631136703589 0.6977515299241562 1.0000   
         H         H         1.0       0.21342463824090352           0.08890878975237082          0.6696072419798793 1.0000   
         H         H         1.0       0.2611777465155647  0.1369897099462516  0.6327441887769389 1.0000   
         H         H         1.0       0.21392985603552184           0.19014137642454054          0.6836094954990656 1.0000   
         H         H         1.0       0.16302708027577184           0.1437711848125245 0.7151383505942969 1.0000   
         C         C         1.0       0.23503365820023325           0.2134480206652032 0.6119936552705761 1.0000   
         C         C         1.0       0.26838429301573985           0.22576575737875526          0.626122884398707  1.0000   
         C         C         1.0       0.15896727424125    0.5500474577367488  0.5966124563246005 1.0000   
         C         C         1.0       0.13128904655281848           0.5558158413422102 0.6099523298255454 1.0000   
         C         C         1.0       0.09469444985308573           0.5295785017574959 0.6018125065948245 1.0000   
         C         C         1.0       0.08865593152577156           0.5015839526409059 0.5754366087233679 1.0000   
         C         C         1.0       0.27579132204767    0.19843545724356937           0.6327089712286585 1.0000   
         C         C         1.0       0.28588170349072173           0.1886258311973681 0.5903315888892552 1.0000   
         C         C         1.0       0.5240310564530185  0.5971477800021664  0.5804789559428225 1.0000   
         C         C         1.0       0.5622934538569764  0.6166352194667639  0.5736594247523189 1.0000   
         C         C         1.0       0.5758652872901286  0.6067733279102273  0.5396242990403828 1.0000   
         C         C         1.0       0.7355418045267953  0.2509687885375025  0.4950510101299235 1.0000   
         C         C         1.0       0.25865050211765794           0.16363532901736266          0.5673669727500994 1.0000   
         C         C         1.0       0.3057511331671259  0.2341693705484491  0.6961328906997549 1.0000   
         C         C         1.0       0.31785168204395875           0.2339093805089194 0.7290720374096337 1.0000   
         C         C         1.0       0.33532333946903137           0.2182692113038609 0.7273820099831483 1.0000   
         C         C         1.0       0.3477582897314955  0.20935668386446582           0.6916204966947203 1.0000   
         C         C         1.0       0.33517084057123814           0.20829095533659858          0.6587056932028521 1.0000   
         C         C         1.0       0.30798145415610767           0.21506463000694698          0.6618114205227594 1.0000   
         C         C         1.0       0.34124590878194505           0.20979251280156586          0.7668555948914343 1.0000   
         C         C         1.0       0.2321064150016401  0.14111387380661622           0.8248648888632307 1.0000   
         C         C         1.0       0.26348537327241806           0.15468260979795856          0.8423081489274518 1.0000   
         C         C         1.0       0.2970759550174251  0.17304221064851166           0.8239474059036516 1.0000   
         C         C         1.0       0.3015090352178724  0.18094998603289514           0.7882561247334584 1.0000   
         C         C         1.0       0.26756514739297854           0.16597614671006933          0.7704527852592375 1.0000   
         C         C         1.0       0.23449923517629445           0.14693556699338028          0.7890001134286989 1.0000   
         C         C         1.0       0.3587827344723731  0.2433653550767676  0.7976932856016858 1.0000   
         C         C         1.0       0.7567234477333655  0.3115635028176287  0.775608746327513  1.0000   
         C         C         1.0       0.5592495935231581  0.57588429792333    0.7616220927872173 1.0000   
         C         C         1.0       0.5785318527384857  0.6060261104994381  0.7446407187364134 1.0000   
         C         C         1.0       0.2620659396469034  0.6130989268537932  0.7552458411479177 1.0000   
         C         C         1.0       0.337701539242357   0.2515815994114079  0.8251963140085181 1.0000   
         C         C         1.0       0.38996576596762433           0.19752402625539212          0.7755258320938041 1.0000   
         C         C         1.0       0.40344749210892905           0.17766025376095973          0.7703215909691449 1.0000   
         C         C         1.0       0.38597409164823215           0.14692036911981776          0.7459075496769526 1.0000   
         C         C         1.0       0.3560308451932539  0.13800968710981887           0.7262959230976062 1.0000   
         C         C         1.0       0.34277550275219415           0.15789547663214942          0.7333062804491683 1.0000   
         C         C         1.0       0.3595875205406758  0.1891438207430669  0.7579246809587863 1.0000   
         H         H         1.0       0.2126287481207927  0.18638285619514505           0.6123445911888458 1.0000   
         H         H         1.0       0.1861777387193453  0.5699085643103964  0.605163940798063  1.0000   
         H         H         1.0       0.13812345481412058           0.5776069091251524 0.6329605405262142 1.0000   
         H         H         1.0       0.0612649428951062  0.48083653125171677           0.571330669116346  1.0000   
         H         H         1.0       0.5130018764036302  0.6026921188328026  0.6086387156212592 1.0000   
         H         H         1.0       0.5802599532470344  0.636070821950451   0.5951130104797571 1.0000   
         H         H         1.0       0.7255712415176535  0.23524509851539555           0.46813820300421916          1.0000   
         H         H         1.0       0.23171666454369433           0.14663252154691797          0.5816434882596377 1.0000   
         H         H         1.0       0.2867924848028276  0.24075283092541233           0.702874939091913  1.0000   
         H         H         1.0       0.31146036063209026           0.2438473069121052 0.7582189692651704 1.0000   
         H         H         1.0       0.7415570296394448  0.2674219858457234  0.692077296261463  1.0000   
         H         H         1.0       0.7497297385190135  0.2778387095417263  0.6247973400262218 1.0000   
         H         H         1.0       0.2622781935705687  0.1510862658193397  0.870806201026601  1.0000   
         H         H         1.0       0.3214014372946852  0.18241130925857907           0.8378002378878696 1.0000   
         H         H         1.0       0.2665677443619574  0.1690818731571746  0.742591046722453  1.0000   
         H         H         1.0       0.20989896095418503           0.13617196646396534          0.7754398382662223 1.0000   
         H         H         1.0       0.7674943020467264  0.2994079810906918  0.754673976022939  1.0000   
         H         H         1.0       0.571229151655326   0.5661135482120498  0.7762742840529773 1.0000   
         H         H         1.0       0.2546076124350283  0.6300973909301312  0.7673698347952491 1.0000   
         H         H         1.0       0.30761470279576386           0.23490374342290088          0.8268189940382329 1.0000   
         H         H         1.0       0.40154046846014846           0.22036571547804273          0.7965634543835444 1.0000   
         H         H         1.0       0.4271473535913062  0.18677011116580688           0.7869788703608975 1.0000   
         H         H         1.0       0.34003087128022    0.11553691746172623           0.7049009762339917 1.0000   
         H         H         1.0       0.3193485578629145  0.1491845865640835  0.7168304686280426 1.0000   
         C         C         1.0       0.2511147625153023  0.7928552082668836  0.031387651085886814         1.0000   
         C         C         1.0       0.2825076875960406  0.797893494946639   0.009977380869803154         1.0000   
         C         C         1.0       0.27862474184728514           0.7785341174787527 0.9760777625603715 1.0000   
         C         C         1.0       0.24394355276315327           0.7557671036542603 0.9612433645421085 1.0000   
         C         C         1.0       0.21275396967521587           0.7514618309005057 0.9836467011154625 1.0000   
         C         C         1.0       0.21689495542066717           0.7706615196036218 0.019494927611931834         1.0000   
         H         H         1.0       0.30913334194229347           0.8151509331637685 0.020588893501876093         1.0000   
         H         H         1.0       0.734707165486025   0.844203322892615   0.9257493729285392 1.0000   
         H         H         1.0       0.186112042990902   0.7341285190419383  0.9732313135600574 1.0000   
         H         H         1.0       0.19199698026733136           0.7663045030429236 0.03562303423329416          1.0000   
         C         C         1.0       0.19463073843017975           0.7397872421551692 0.8952566847347919 1.0000   
         C         C         1.0       0.203234428896081   0.7177309260041586  0.8977020903052587 1.0000   
         C         C         1.0       0.18518740359646535           0.6867172473183282 0.8734782489310495 1.0000   
         C         C         1.0       0.15804258914753433           0.6788556288284403 0.8520720399312744 1.0000   
         C         C         1.0       0.14921209179427808           0.701041916367695  0.8501322733981496 1.0000   
         C         C         1.0       0.16966154697957903           0.7335998543308099 0.871469073626465  1.0000   
         C         C         1.0       0.2387279087128651  0.7320645039494447  0.9218662962113782 1.0000   
         C         C         1.0       0.24084321368776251           0.705398863586332  0.9377172983620682 1.0000   
         C         C         1.0       0.2740741428076172  0.7098131827265151  0.9388134757491411 1.0000   
         C         C         1.0       0.6853424111027742  0.7374086305102494  0.9189832261498364 1.0000   
         C         C         1.0       0.18444442176928688           0.0815311072553444 0.006228698413433431         1.0000   
         C         C         1.0       0.15465443745245167           0.07751381051765316          0.030072296993728598         1.0000   
         C         C         1.0       0.20907595641874677           0.6766736882116359 0.9516487340487391 1.0000   
         C         C         1.0       0.6301030521563844  0.7707689511767961  0.8899287869448035 1.0000   
         C         C         1.0       0.6283259568903423  0.7656372559688     0.8515730723558524 1.0000   
         C         C         1.0       0.65605962193449    0.7925754233705373  0.8307747202417898 1.0000   
         C         C         1.0       0.6768953100924755  0.8259898503703291  0.8516482316869836 1.0000   
         C         C         1.0       0.28701713711626176           0.7848551923788486 0.8899512085866852 1.0000   
         C         C         1.0       0.2697253881731425  0.7511029971942166  0.8908746749564731 1.0000   
         C         C         1.0       0.66365121578736    0.7883244785361366  0.7847423726440456 1.0000   
         C         C         1.0       0.6514184635674535  0.6911620161654763  0.7442352764042532 1.0000   
         C         C         1.0       0.642055448077432   0.7039301245807005  0.7231850716906987 1.0000   
         C         C         1.0       0.6466929490736902  0.7344055457851635  0.7355107456439582 1.0000   
         C         C         1.0       0.6588902146192358  0.7528665851560337  0.7714184883627869 1.0000   
         C         C         1.0       0.6723183290325533  0.740541555741422   0.7902252806244031 1.0000   
         C         C         1.0       0.6677554975283935  0.7099056971594324  0.7775843423084767 1.0000   
         C         C         1.0       0.7049922836083757  0.8140033898516018  0.7682819301401195 1.0000   
         C         C         1.0       0.7338146475250142  0.82520719077907    0.7875132992899124 1.0000   
         C         C         1.0       0.7687246677489268  0.843592047340801   0.7720635421315293 1.0000   
         C         C         1.0       0.7766366451159233  0.8547582766368159  0.7367491248874074 1.0000   
         C         C         1.0       0.7480109780733943  0.8406963533483617  0.7149005795272065 1.0000   
         C         C         1.0       0.7113884603692467  0.8203657179925882  0.7305009761933885 1.0000   
         C         C         1.0       0.6388915694269449  0.8206188083462395  0.7639417862421523 1.0000   
         C         C         1.0       0.6083124631251153  0.8192460614717553  0.7576826882103664 1.0000   
         C         C         1.0       0.29431998228639644           0.7979230037037486 0.7193190444868853 1.0000   
         C         C         1.0       0.2939327827714662  0.7697544449095537  0.7186271676737815 1.0000   
         C         C         1.0       0.3152320356637124  0.7706420875998262  0.7419520841697501 1.0000   
         C         C         1.0       0.6334935052033698  0.7917968552850935  0.7729692653009504 1.0000   
         H         H         1.0       0.21007851948296663           0.7655548867692987 0.9117956002352392 1.0000   
         H         H         1.0       0.19143994663135477           0.6692447794971478 0.8733615995826394 1.0000   
         H         H         1.0       0.1398413513366603  0.6531036333704254  0.837802111870445  1.0000   
         H         H         1.0       0.16568515526018124           0.7523484447068255 0.8730633778455482 1.0000   
         H         H         1.0       0.7059522765053138  0.7851772524089733  0.9067718702133394 1.0000   
         H         H         1.0       0.6999427891882518  0.7317439373963655  0.8952434344020233 1.0000   
         H         H         1.0       0.1325658871345352  0.05262785107969803           0.03254595079824529          1.0000   
         H         H         1.0       0.18241530693732044           0.6728103815160609 0.9501352140455852 1.0000   
         H         H         1.0       0.2583878580038559  0.7039547342817435  0.8612278443968336 1.0000   
         H         H         1.0       0.6128629850469334  0.7413277573786244  0.8385524239309854 1.0000   
         H         H         1.0       0.6982948564510297  0.8495770909743217  0.8382557356466829 1.0000   
         H         H         1.0       0.2823702584699992  0.8023148891245928  0.9088076022618803 1.0000   
         H         H         1.0       0.6307551511449594  0.6924960688904254  0.6946860099178027 1.0000   
         H         H         1.0       0.6415786709721252  0.7449221258565287  0.7169039077447358 1.0000   
         H         H         1.0       0.6866162159008267  0.754822514709442   0.8155778552314398 1.0000   
         H         H         1.0       0.6775711193727117  0.7006371920646983  0.7936163920698275 1.0000   
         H         H         1.0       0.7317334483341371  0.8167469755916933  0.8142871383513884 1.0000   
         H         H         1.0       0.7898051330801328  0.8507375894864019  0.7911822262716933 1.0000   
         H         H         1.0       0.7518193254731772  0.847207958337905   0.6867078431893421 1.0000   
         H         H         1.0       0.6890648752943336  0.8096702983830621  0.713028600401806  1.0000   
         H         H         1.0       0.6660364626957432  0.8451952920023118  0.7610753360875951 1.0000   
         H         H         1.0       0.611442661745065   0.8404448921450048  0.749335227844317  1.0000   
         H         H         1.0       0.27363053112476377           0.7455669610146476 0.7023170162499976 1.0000   
         H         H         1.0       0.31242864266069525           0.7465757344583805 0.7428679521878016 1.0000   
         C         C         1.0       0.3621398711782855  0.08195311476364453           0.7939351495872627 1.0000   
         C         C         1.0       0.7204535105732275  0.12075078643622916           0.7777304653833751 1.0000   
         C         C         1.0       0.7076085121462892  0.10591090502165712           0.8100370022718681 1.0000   
         C         C         1.0       0.29731162165752223           0.03422962259577833          0.8346259565369426 1.0000   
         C         C         1.0       0.29586822664670076           0.039337378423523806         0.79795077488181   1.0000   
         C         C         1.0       0.3281899684016609  0.06163826932666394           0.778046163967565  1.0000   
         H         H         1.0       0.7500537827412261  0.13952319882807207           0.7720938609860509 1.0000   
         H         H         1.0       0.7234883446338708  0.10849402828874144           0.8302602600151566 1.0000   
         H         H         1.0       0.2685207869518298  0.021756241581208924         0.7848499100689941 1.0000   
         H         H         1.0       0.3269272259687437  0.06438284305554176           0.7491474707233612 1.0000   
         C         C         1.0       0.22065955839588036           0.03190274497991519          0.8530748591649202 1.0000   
         C         C         1.0       0.22321049528410297           0.005545373831844058         0.8503482165077892 1.0000   
         C         C         1.0       0.18946194432150687           0.9724625557470303 0.8502327235996946 1.0000   
         C         C         1.0       0.15666769611810905           0.9687086546673032 0.8571197161542723 1.0000   
         C         C         1.0       0.1543738623676012  0.9953291124498661  0.8586372057103907 1.0000   
         C         C         1.0       0.18668827965439938           0.026898134307305588         0.8548113468648425 1.0000   
         C         C         1.0       0.2594656797370798  0.00921229992966599           0.858801244089302  1.0000   
         C         C         1.0       0.6758482782125121  0.09687261398138758           0.9008949585189573 1.0000   
         C         C         1.0       0.6704298313899314  0.08065474491627    0.9312838078673892 1.0000   
         C         C         1.0       0.6877282373769422  0.09890442881031292           0.9650207076824622 1.0000   
         C         C         1.0       0.7100134334960281  0.1340956946747882  0.9694520824977915 1.0000   
         C         C         1.0       0.7150576860311032  0.15028764703318487           0.9392689765654174 1.0000   
         C         C         1.0       0.2771710609894149  0.05510126296030582           0.9217367275434875 1.0000   
         C         C         1.0       0.2497513158348983  0.955015853646864   0.8126063589171525 1.0000   
         C         C         1.0       0.23922741023729754           0.9219680952003104 0.8091423304882465 1.0000   
         C         C         1.0       0.6380347067064402  0.9752031405354619  0.8397266694903128 1.0000   
         C         C         1.0       0.6701723640622788  0.004207994392583236         0.8538868046139532 1.0000   
         C         C         1.0       0.6785349119378833  0.036106741908433326         0.8555434315192197 1.0000   
         C         C         1.0       0.2592608132012877  0.9751571160163146  0.847906791674663  1.0000   
         C         C         1.0       0.623389765261966   0.937153920367796   0.8466468015117239 1.0000   
         C         C         1.0       0.10833065978896572           0.8486740569822669 0.8895709902405057 1.0000   
         C         C         1.0       0.10989739354893113           0.8351199982739871 0.8526581145294464 1.0000   
         C         C         1.0       0.14211788367500655           0.8391503619972096 0.8373559626717395 1.0000   
         C         C         1.0       0.6083714119338779  0.9382510199731132  0.8915673851963007 1.0000   
         C         C         1.0       0.631788032613541   0.9509664320191206  0.919784005680206  1.0000   
         C         C         1.0       0.6208174995309594  0.9575054694438667  0.9581992515579066 1.0000   
         C         C         1.0       0.6556170779020161  0.9318161013398712  0.8393099806443136 1.0000   
         C         C         1.0       0.688079371059222   0.9509812892547945  0.8168054923194575 1.0000   
         C         C         1.0       0.7160403293172696  0.9466613141855548  0.814969253002434  1.0000   
         C         C         1.0       0.7117681624931905  0.9239993799531052  0.836370727413976  1.0000   
         C         C         1.0       0.67839285873313    0.9021656377605767  0.8554497540461721 1.0000   
         C         C         1.0       0.6507375338273272  0.9058201202975746  0.8568355078076509 1.0000   
         C         C         1.0       0.19573251319922602           0.8124830154833631 0.7954407457203082 1.0000   
         C         C         1.0       0.20073288946947132           0.7932175200977882 0.7645998058020448 1.0000   
         C         C         1.0       0.22672345987884923           0.8082580113601114 0.7347182640663928 1.0000   
         C         C         1.0       0.24922421100753978           0.8432105778690722 0.7371252115664315 1.0000   
         C         C         1.0       0.24775727323659957           0.8626740204434454 0.7700103279049414 1.0000   
         C         C         1.0       0.2181517063331917  0.8473028339862411  0.7985561551931671 1.0000   
         H         H         1.0       0.24541386277625699           0.05804103642046532          0.8569248150791755 1.0000   
         H         H         1.0       0.18752844702364602           0.9501628678644188 0.8497958186199629 1.0000   
         H         H         1.0       0.12895381142504259           0.9434234489016281 0.862260416441005  1.0000   
         H         H         1.0       0.18533181927350095           0.04829494765946385          0.858347980585338  1.0000   
         H         H         1.0       0.6532191833895661  0.053580040389458405         0.929613605100897  1.0000   
         H         H         1.0       0.6850622817134626  0.08407138474211662           0.9862068657511043 1.0000   
         H         H         1.0       0.7335306790244691  0.17673600081985708           0.942123328681277  1.0000   
         H         H         1.0       0.30162307053229687           0.07427731169697882          0.9069344873413926 1.0000   
         H         H         1.0       0.24514929650411266           0.9622439190502728 0.7887117502029002 1.0000   
         H         H         1.0       0.22460387216556188           0.9041681448156497 0.7838439684289963 1.0000   
         H         H         1.0       0.6874434283279658  0.002507608813727469         0.8707159370918492 1.0000   
         H         H         1.0       0.7062377085896044  0.057631522687599857         0.8641794595956267 1.0000   
         H         H         1.0       0.08773713871642985           0.8220997002588177 0.8350297750991063 1.0000   
         H         H         1.0       0.1398571664337196  0.82514331266457    0.8087238204474875 1.0000   
         H         H         1.0       0.6548694482337806  0.9504670235043946  0.9163824030387573 1.0000   
         H         H         1.0       0.6399435850385583  0.9644604703685804  0.9790988463831873 1.0000   
         H         H         1.0       0.6939855200134316  0.9686461731371745  0.7985908149931981 1.0000   
         H         H         1.0       0.7418402787919005  0.9649242375129151  0.7994017183195614 1.0000   
         H         H         1.0       0.6730495843467982  0.8786499004844408  0.8610296342867565 1.0000   
         H         H         1.0       0.6275437429445134  0.8912977754311248  0.8742855300949859 1.0000   
         H         H         1.0       0.17475119999645372           0.7977507756508382 0.8173749250950778 1.0000   
         H         H         1.0       0.18617845878894834           0.766508668098409  0.764249178927833  1.0000   
         H         H         1.0       0.27231801843080117           0.8569121611178994 0.7152618790680062 1.0000   
         H         H         1.0       0.6217221682537537  0.9291981741176824  0.7672789380068928 1.0000   
         C         C         1.0       0.9190349810054299  0.8956970847310864  0.9539921487883849 1.0000   
         C         C         1.0       0.9316145527637674  0.8954056824739248  0.9155547130677177 1.0000   
         C         C         1.0       0.9213697591671595  0.9071542461486821  0.8923883185083891 1.0000   
         C         C         1.0       0.8942596935869811  0.9137364189150168  0.9036861776082457 1.0000   
         C         C         1.0       0.8751524860030204  0.9049296557432435  0.9387976882964505 1.0000   
         C         C         1.0       0.8886559365212807  0.8977266807938666  0.9638928665816991 1.0000   
         H         H         1.0       0.9512224134683814  0.8894379824719708  0.9052297812514197 1.0000   
         H         H         1.0       0.9424337234984429  0.9184337531225494  0.8703042949732414 1.0000   
         H         H         1.0       0.8526459446269626  0.9065780158546927  0.946718723357558  1.0000   
         H         H         1.0       0.8751436504958724  0.8925857838172389  0.9932987157430824 1.0000   
         C         C         1.0       0.820378220170511   0.9043963482177979  0.8835713942674701 1.0000   
         C         C         1.0       0.85464449977477    0.9342770665472784  0.886857762769196  1.0000   
         C         C         1.0       0.8555329874620384  0.964392537839752   0.8888170772307377 1.0000   
         C         C         1.0       0.8246248740991906  0.9629962383300822  0.8868396470415449 1.0000   
         C         C         1.0       0.7913341354443446  0.9322827361420005  0.8843942255920951 1.0000   
         C         C         1.0       0.7887454388533843  0.9025168185280787  0.8811397275256899 1.0000   
         C         C         1.0       0.891404579305634   0.9356784282644443  0.8774887476062412 1.0000   
         C         C         1.0       0.8920720477443655  0.92430139144601    0.8322319530025384 1.0000   
         C         C         1.0       0.8933212676168827  0.9422222301704711  0.8070367282146449 1.0000   
         C         C         1.0       0.8835884836965078  0.9287785984189286  0.769788848247086  1.0000   
         C         C         1.0       0.8642318790636694  0.8945403144522353  0.7594662994047322 1.0000   
         C         C         1.0       0.8639127917785059  0.8751224982010031  0.7829354180088567 1.0000   
         C         C         1.0       0.8779176301288608  0.8904096046257445  0.8186448387671448 1.0000   
         C         C         1.0       0.9273008086754212  0.9847808719730435  0.9316529764520546 1.0000   
         C         C         1.0       0.9591006569636922  0.010926566180153419         0.9455665944791467 1.0000   
         C         C         1.0       0.9925180223045015  0.028926694419890264         0.922201478681443  1.0000   
         C         C         1.0       0.9890202625747478  0.020329295436331885         0.8838052231518408 1.0000   
         C         C         1.0       0.9580104111360603  0.9936325783836031  0.8694584576822679 1.0000   
         C         C         1.0       0.9264746800484615  0.9745551475417985  0.8928586810137651 1.0000   
         C         C         1.0       0.03120332064528486           0.04806834933601101          0.9421319207222405 1.0000   
         C         C         1.0       0.1386873898936205  0.11455683091350188           0.8764376889127262 1.0000   
         C         C         1.0       0.129481693825225   0.1282116825146542  0.9114273366866552 1.0000   
         C         C         1.0       0.09437808606395559           0.11044460068687956          0.9282075237423688 1.0000   
         C         C         1.0       0.06794245415837286           0.07547272208682698          0.916086297280578  1.0000   
         C         C         1.0       0.0787997755004024  0.06422780424096985           0.8807801171614217 1.0000   
         C         C         1.0       0.11282886571816797           0.08302944000237611          0.8602917245331722 1.0000   
         C         C         1.0       0.04079839246943284           0.02254887338506495          0.947607445341077  1.0000   
         C         C         1.0       0.07532036979726464           0.03699317045747774          0.9613063773872225 1.0000   
         C         C         1.0       0.09133292137385163           0.019854959115671367         0.9579014687782919 1.0000   
         C         C         1.0       0.07382602908772262           0.9885587949019473 0.9365126670325878 1.0000   
         C         C         1.0       0.0389986915058802  0.9720068747648323  0.926924142395864  1.0000   
         C         C         1.0       0.021128806516838683          0.9881375305480303 0.9329927533899169 1.0000   
         C         C         1.0       0.018620088581604133          0.09093716390285689          0.9800866088723829 1.0000   
         C         C         1.0       0.011756289041258139          0.1080565921772092 0.014496938642205137         1.0000   
         C         C         1.0       0.015176016668589698          0.10394374039386034          0.05021195127494704          1.0000   
         C         C         1.0       0.02222349334369844           0.08011962465627276          0.05086744153664391          1.0000   
         C         C         1.0       0.025986075501240435          0.06229547297292237          0.018906619283601378         1.0000   
         C         C         1.0       0.026840503883295064          0.0681359987558472 0.9812574567673116 1.0000   
         H         H         1.0       0.8161643532056265  0.8796706650608244  0.8766803086625673 1.0000   
         H         H         1.0       0.8800745204152657  0.9901378427193116  0.8901332253348119 1.0000   
         H         H         1.0       0.8278743934693477  0.9858859721258003  0.8832981207923954 1.0000   
         H         H         1.0       0.7649669784548513  0.8798702120378294  0.8725335724783554 1.0000   
         H         H         1.0       0.9012041019578776  0.9681490497460383  0.8151592866090746 1.0000   
         H         H         1.0       0.8871055306356046  0.9457534131541644  0.749570207864121  1.0000   
         H         H         1.0       0.8461371500281841  0.8477734285252391  0.7731090757891314 1.0000   
         H         H         1.0       0.870592227940849   0.8768016963500929  0.8412198696947304 1.0000   
         H         H         1.0       0.9050018222829205  0.9711837451289971  0.9530978111157964 1.0000   
         H         H         1.0       0.9612069928632194  0.012965948450636589         0.9759230991431944 1.0000   
         H         H         1.0       0.012127273704503727          0.03458428785325407          0.8641557607388245 1.0000   
         H         H         1.0       0.962462909945182   0.9862961404940751  0.8379555231921738 1.0000   
         H         H         1.0       0.1503473177551251  0.15334576937735123           0.9258970819789626 1.0000   
         H         H         1.0       0.09002269108945482           0.12354594386633733          0.9551695756862987 1.0000   
         H         H         1.0       0.06495981417888919           0.037822148955432455         0.8682212903647542 1.0000   
         H         H         1.0       0.11609695148293264           0.07083383563567369          0.831289727620151  1.0000   
         H         H         1.0       0.09000100526239607           0.06384164564581374          0.9767390117823272 1.0000   
         H         H         1.0       0.11867359876645533           0.031613220426656596         0.9674223580096512 1.0000   
         H         H         1.0       0.028030443871653654          0.9495048038697258 0.9075225176734507 1.0000   
         H         H         1.0       0.9947236725656661  0.9737171241940957  0.9192662724457968 1.0000   
         H         H         1.0       0.019147628827581142          0.09729269980896693          0.9518610057373713 1.0000   
         H         H         1.0       0.008088673379119893          0.12713716299715316          0.010122007798318622         1.0000   
         H         H         1.0       0.01986912912191574           0.07512697440240146          0.07752576651754883          1.0000   
         H         H         1.0       0.034125830827261616          0.04619764464555187          0.023967245782033464         1.0000   
         C         C         1.0       0.6868532453160311  0.01649364979058121           0.3009328811157956 1.0000   
         C         C         1.0       0.6864535923587187  0.03980647136776416           0.2850088823770548 1.0000   
         C         C         1.0       0.7005770202261573  0.07179912920723375           0.3044180312761616 1.0000   
         C         C         1.0       0.71869706705569    0.08318686511799678           0.3380895610648873 1.0000   
         C         C         1.0       0.7241210535494254  0.06220944301929765           0.3486961318304279 1.0000   
         C         C         1.0       0.7075667498901654  0.02932149625549796           0.33175394981039824          1.0000   
         H         H         1.0       0.6709513448616969  0.031738172000346676         0.2586788134074819 1.0000   
         H         H         1.0       0.6948710476036398  0.08684586842476816           0.2926060791565757 1.0000   
         H         H         1.0       0.7414287944866071  0.07092735356316449           0.3716486110111022 1.0000   
         H         H         1.0       0.7058232514532589  0.011711162628488037         0.34709353055121556          1.0000   
         C         C         1.0       0.7074746435384865  0.0958726630243707  0.428570135563689  1.0000   
         C         C         1.0       0.7312849405917992  0.12378475963234914           0.4089215055703939 1.0000   
         C         C         1.0       0.751812694564451   0.1559940306297718  0.4307470059032071 1.0000   
         C         C         1.0       0.7514516424571872  0.1605430393808125  0.46915290061858755          1.0000   
         C         C         1.0       0.7263075486356855  0.13440337520255508           0.48912800349082125          1.0000   
         C         C         1.0       0.7044283189778964  0.10100174962152675           0.468507024456078  1.0000   
         C         C         1.0       0.7347063905605962  0.11983905164125574           0.36251990749476554          1.0000   
         C         C         1.0       0.7102528861744472  0.13300247349021954           0.3595172403983822 1.0000   
         C         C         1.0       0.7262879760672074  0.16697523485639643           0.3611458174443347 1.0000   
         C         C         1.0       0.7064128061487744  0.17948797034438435           0.3647582997412849 1.0000   
         C         C         1.0       0.1484220808362735  0.030015290033620357         0.3436368994344253 1.0000   
         C         C         1.0       0.15728311249943383           0.005897272293556188         0.33152607065652134          1.0000   
         C         C         1.0       0.6712871095714106  0.1127816536603663  0.36539589850103593          1.0000   
         C         C         1.0       0.804677549898033   0.1518611654057198  0.3605013765913876 1.0000   
         C         C         1.0       0.7791019473898039  0.6350950210134886  0.46617873601418075          1.0000   
         C         C         1.0       0.7887054493556988  0.6679701267070232  0.47983904798737403          1.0000   
         C         C         1.0       0.7890276389265491  0.6861481345427286  0.45461222304259175          1.0000   
         C         C         1.0       0.7724933492479349  0.6704355773425346  0.42009114824593   1.0000   
         C         C         1.0       0.7741167518769236  0.1395673250004199  0.3411089767733868 1.0000   
         C         C         1.0       0.7955933814847442  0.6829865508835867  0.5234550527669446 1.0000   
         C         C         1.0       0.6781012163887227  0.6352734805521941  0.5483159285972599 1.0000   
         C         C         1.0       0.6920844223040423  0.618851159623573   0.5558226015031242 1.0000   
         C         C         1.0       0.728266867943299   0.6322256270202177  0.5473492426169262 1.0000   
         C         C         1.0       0.7534441457034321  0.6653787377667131  0.5363614422451529 1.0000   
         C         C         1.0       0.7375863462535225  0.6823132660121788  0.533616442035255  1.0000   
         C         C         1.0       0.701858315174939   0.669290991473064   0.5419571607810951 1.0000   
         C         C         1.0       0.8221747171775835  0.7224123597685147  0.5346794768897403 1.0000   
         C         C         1.0       0.8528693518200935  0.7439238813804037  0.5105051268176897 1.0000   
         C         C         1.0       0.8713198156527625  0.7791086497641759  0.5208731576063229 1.0000   
         C         C         1.0       0.8663655427922865  0.79210697931221    0.5568078915738852 1.0000   
         C         C         1.0       0.8377473108851994  0.7696381342295767  0.5818418413796013 1.0000   
         C         C         1.0       0.8174216016798925  0.7353777352593229  0.5701923599575096 1.0000   
         C         C         1.0       0.810625253076626   0.6665012961229558  0.5792444257769562 1.0000   
         C         C         1.0       0.8283289956010648  0.6567821119666093  0.5936398833621229 1.0000   
         C         C         1.0       0.8528737236804557  0.6513692895557505  0.5700448901537377 1.0000   
         C         C         1.0       0.8606874445778372  0.6577720289143532  0.5311424351578263 1.0000   
         C         C         1.0       0.843490816138875   0.6692550265792397  0.5181924321339354 1.0000   
         C         C         1.0       0.817154082545997   0.6716328071538261  0.540851385095365  1.0000   
         H         H         1.0       0.6891304832385162  0.06853624953800463           0.4141662776105011 1.0000   
         H         H         1.0       0.768277956576753   0.17830068351923667           0.41593401164681376          1.0000   
         H         H         1.0       0.7646608459479926  0.1869246036991823  0.486910457543396  1.0000   
         H         H         1.0       0.6891647312760056  0.07878865346056041           0.4823872420965728 1.0000   
         H         H         1.0       0.7569880572401132  0.18432644944372578           0.35975388257211915          1.0000   
         H         H         1.0       0.7199799954588005  0.20558789482519346           0.36104322540343275          1.0000   
         H         H         1.0       0.13792093099313152           0.9801382475769519 0.33557742830930276          1.0000   
         H         H         1.0       0.6538992900819568  0.08447006972224602           0.3671720059526437 1.0000   
         H         H         1.0       0.8015233735791356  0.14264503334869305           0.3871426898262341 1.0000   
         H         H         1.0       0.8601307101162704  0.1847979056387583  0.3672632840668143 1.0000   
         H         H         1.0       0.8010284448349589  0.712529366265067   0.46148074210986295          1.0000   
         H         H         1.0       0.7697108122264512  0.6833731202841015  0.40163287514809515          1.0000   
         H         H         1.0       0.6755168108350181  0.5920323872733168  0.5606626161942992 1.0000   
         H         H         1.0       0.7394400290051125  0.6178059221191976  0.5478644887455608 1.0000   
         H         H         1.0       0.7555825045359175  0.7068966478219482  0.525125839270904  1.0000   
         H         H         1.0       0.6918883686008563  0.68297085804794    0.5411054270952199 1.0000   
         H         H         1.0       0.8606609094527853  0.7359254055029418  0.4827929793024933 1.0000   
         H         H         1.0       0.8914812349785144  0.7932245639289176  0.4990662089013521 1.0000   
         H         H         1.0       0.8341613720241516  0.777396612538256   0.6119481773831594 1.0000   
         H         H         1.0       0.7990224073765684  0.7195509141554596  0.5921472264490297 1.0000   
         H         H         1.0       0.791556221067008   0.671234150061645   0.5988564082577691 1.0000   
         H         H         1.0       0.8231460431262101  0.6561086793440839  0.6246906485833151 1.0000   
         H         H         1.0       0.8795587677547597  0.6534365832865843  0.5101004391774958 1.0000   
         H         H         1.0       0.8496085912651108  0.6715915462764682  0.4862744217939594 1.0000   
         C         C         1.0       0.016659302761879324          0.8017192061165636 0.3670169943992726 1.0000   
         C         C         1.0       0.9932774305788501  0.7880518316993202  0.39792975435962413          1.0000   
         C         C         1.0       0.002942648437075368          0.8052700869671684 0.43471442414489075          1.0000   
         C         C         1.0       0.036282350585511214          0.8361395814030611 0.44327636041851853          1.0000   
         C         C         1.0       0.059269273245552645          0.8494030511530282 0.4100504494645844 1.0000   
         C         C         1.0       0.04951876050941317           0.834667495808547  0.3730176116306645 1.0000   
         H         H         1.0       0.9656495661454011  0.7642925869147502  0.3932954562664586 1.0000   
         H         H         1.0       0.9824691057663617  0.7913373865776098  0.4565635718551668 1.0000   
         H         H         1.0       0.08516912277098898           0.8737820182911011 0.4151309004111525 1.0000   
         H         H         1.0       0.06602966095399188           0.8458714914724466 0.3456328059084245 1.0000   
         C         C         1.0       0.10341368203752221           0.8544011765188695 0.4881584520552571 1.0000   
         C         C         1.0       0.06568505637030575           0.8388555802779787 0.49624050187378743          1.0000   
         C         C         1.0       0.04856387256565653           0.8102852554059184 0.5146541293024651 1.0000   
         C         C         1.0       0.06518968262094349           0.7960361661155684 0.5212685647185091 1.0000   
         C         C         1.0       0.10178841177695297           0.8110204094146546 0.5097397639750539 1.0000   
         C         C         1.0       0.12040877706620079           0.8396936135337465 0.4935853378654994 1.0000   
         C         C         1.0       0.04523765404021862           0.8533372044029868 0.48619360146929524          1.0000   
         C         C         1.0       0.009534571052620455          0.8451448094765438 0.5165231569649923 1.0000   
         C         C         1.0       0.9851099128234457  0.8490889353345389  0.5034079180340524 1.0000   
         C         C         1.0       0.9606329007898777  0.8525245948277524  0.5268826078433398 1.0000   
         C         C         1.0       0.9510945289957714  0.8435279507879067  0.5628673808949356 1.0000   
         C         C         1.0       0.9722334726808719  0.8358766073183959  0.5770830846569834 1.0000   
         C         C         1.0       0.0029333253607706222         0.839939373550977  0.5554210907795207 1.0000   
         C         C         1.0       0.08655768223380211           0.911156478737323  0.5259629695998638 1.0000   
         C         C         1.0       0.09942575043748092           0.9453967643837408 0.5388553833470745 1.0000   
         C         C         1.0       0.09604745478437238           0.9632951091727159 0.5152620819386264 1.0000   
         C         C         1.0       0.0823042305393642  0.9466811599022904  0.4801782607483136 1.0000   
         C         C         1.0       0.06617377410537872           0.9126241068464847 0.4687222632254927 1.0000   
         C         C         1.0       0.0685840383369456  0.8946287175352862  0.49211276760118894          1.0000   
         C         C         1.0       0.10981355016367944           0.0025067208826952125        0.530247248576635  1.0000   
         C         C         1.0       0.11217183774143336           0.046814212749496154         0.6528479921697409 1.0000   
         C         C         1.0       0.1271812311094358  0.06685569754166365           0.6235019307119704 1.0000   
         C         C         1.0       0.12652884741117276           0.051351013169564474         0.5860985720426499 1.0000   
         C         C         1.0       0.10619492197565061           0.016645903774539228         0.5747867956421306 1.0000   
         C         C         1.0       0.09187630160763005           0.9971865196776967 0.6049185947924479 1.0000   
         C         C         1.0       0.09430323660991191           0.01207603840918714          0.6422459135181668 1.0000   
         C         C         1.0       0.08239646390986777           0.009035894225844165         0.5167663272169112 1.0000   
         C         C         1.0       0.09542242614191432           0.03848916244141498          0.5024261247243059 1.0000   
         C         C         1.0       0.07254354192956791           0.04578347923137138          0.49402383533116195          1.0000   
         C         C         1.0       0.033446552754234915          0.022253694545777636         0.49887486137876924          1.0000   
         C         C         1.0       0.02105923378009411           0.9931963370476476 0.5144731782979813 1.0000   
         C         C         1.0       0.044515008655765076          0.9875743102319312 0.5227054004016406 1.0000   
         C         C         1.0       0.17921140846317263           0.030461171411124255         0.5414623442079116 1.0000   
         C         C         1.0       0.2159733300238018  0.042642341259057526         0.528742767209962  1.0000   
         C         C         1.0       0.22618943679403736           0.04350763373295519          0.48982179793007546          1.0000   
         C         C         1.0       0.2020829650764453  0.03736564936219877           0.4652914873618823 1.0000   
         C         C         1.0       0.16533210763473716           0.025963366369170293         0.47955636346964725          1.0000   
         C         C         1.0       0.1531436661934844  0.023032362876584056         0.5167884088117958 1.0000   
         H         H         1.0       0.12037065955244186           0.880468697641148  0.4795723877125325 1.0000   
         H         H         1.0       0.01971970555512792           0.7961614564538072 0.5246101329069381 1.0000   
         H         H         1.0       0.05029061993069073           0.7741248936795427 0.5368395523958772 1.0000   
         H         H         1.0       0.15125552557711042           0.8541491105409    0.48719657545650735          1.0000   
         H         H         1.0       0.9922002213680211  0.85722713553262    0.4757119189802065 1.0000   
         H         H         1.0       0.9472426358261498  0.86095864982566    0.5147966827017957 1.0000   
         H         H         1.0       0.9633079541303677  0.8270056683452207  0.6068666250733071 1.0000   
         H         H         1.0       0.02104582729736948           0.8371433685732993 0.56707803289839   1.0000   
         H         H         1.0       0.08859748854954774           0.8961532717728361 0.5427808680129215 1.0000   
         H         H         1.0       0.11319381150280838           0.9590663593185378 0.5636864296763221 1.0000   
         H         H         1.0       0.08126452401741946           0.9612238443179449 0.4623204659042767 1.0000   
         H         H         1.0       0.0528810066104779  0.9016721449446471  0.4413999937656908 1.0000   
         H         H         1.0       0.14455761502807807           0.09388114127184832          0.6289781593385375 1.0000   
         H         H         1.0       0.13961200807997964           0.06990751557247643          0.5663243498476356 1.0000   
         H         H         1.0       0.07414539707029455           0.9692998039632875 0.6002756449763553 1.0000   
         H         H         1.0       0.07815988804050789           0.9941642722793274 0.6642183546572766 1.0000   
         H         H         1.0       0.12540499233966007           0.056431041395554216         0.4992390345365368 1.0000   
         H         H         1.0       0.08327762636596336           0.06680788799695492          0.4796539254465645 1.0000   
         H         H         1.0       0.9938787374024622  0.9790574671076712  0.5257956816246783 1.0000   
         H         H         1.0       0.0334217349076702  0.9677646241141691  0.541987673067666  1.0000   
         H         H         1.0       0.17466435030568395           0.027671639408687332         0.5716231601445054 1.0000   
         H         H         1.0       0.23132270779094966           0.044683862465704216         0.5512954383216689 1.0000   
         H         H         1.0       0.2064270852660024  0.03678141284580283           0.4350734796043257 1.0000   
         H         H         1.0       0.1433840510849822  0.01564675521153802           0.46070409681854013          1.0000   
         C         C         1.0       0.03547030323977163           0.5507231537579653 0.6038352294663151 1.0000   
         C         C         1.0       0.05864059746425054           0.5710975917481238 0.5753396545156967 1.0000   
         C         C         1.0       0.04598120271246664           0.5628291835731396 0.5392458147445123 1.0000   
         C         C         1.0       0.009501338171306717          0.5358099174505742 0.5309891401144571 1.0000   
         C         C         1.0       0.9852782529840316  0.5202839192292236  0.563151332431247  1.0000   
         C         C         1.0       0.9983411267516952  0.525162723226903   0.5965079641502357 1.0000   
         H         H         1.0       0.08838263411592684           0.5881927599966768 0.5813501332510531 1.0000   
         H         H         1.0       0.06442427205616963           0.5757182760832543 0.515656318380569  1.0000   
         H         H         1.0       0.9553817926985899  0.5021812178386453  0.5581973420772119 1.0000   
         H         H         1.0       0.9799939087120316  0.5125259027578678  0.6212158243517049 1.0000   
         C         C         1.0       0.10505038304135783           0.14142432286947804          0.5057501722912097 1.0000   
         C         C         1.0       0.10386284773161347           0.14651819613759542          0.46816256664934197          1.0000   
         C         C         1.0       0.06711975453745778           0.1277171848852383 0.4547100715171937 1.0000   
         C         C         1.0       0.0361701291830292  0.10104660357192996           0.4728144274995183 1.0000   
         C         C         1.0       0.039814086284873484          0.09523062661108983          0.507544180478022  1.0000   
         C         C         1.0       0.07387934369707816           0.11618151730195092          0.5233944451640324 1.0000   
         C         C         1.0       0.0005394265464626624         0.5215545253038041 0.48633147807300225          1.0000   
         C         C         1.0       0.03033681784876885           0.5141435099911502 0.46658716938363615          1.0000   
         C         C         1.0       0.05324036681708    0.526622561950185   0.4340041778468419 1.0000   
         C         C         1.0       0.08135017930050026           0.5235710588525283 0.42392155743743787          1.0000   
         C         C         1.0       0.09102851184188254           0.5113692538040326 0.44790098993150435          1.0000   
         C         C         1.0       0.06447717932025054           0.4922609630585888 0.4731415046925449 1.0000   
         C         C         1.0       0.03828640063413746           0.49855019528347627          0.4860909491510536 1.0000   
         C         C         1.0       0.9697889686700796  0.5523702772026231  0.4881401377089568 1.0000   
         C         C         1.0       0.9705919886956598  0.579115396226413   0.4839302328620184 1.0000   
         C         C         1.0       0.00042425923720079695        0.6064257848621749 0.46798859822191163          1.0000   
         C         C         1.0       0.03068084407219751           0.6056129900263563 0.45485439722985505          1.0000   
         C         C         1.0       0.03210215316724385           0.5798868999084786 0.4621867195642905 1.0000   
         C         C         1.0       0.000825092000168004          0.5511951209467834 0.4762255575772952 1.0000   
         C         C         1.0       0.0017353924624221584         0.6386674569265067 0.46404404877650346          1.0000   
         C         C         1.0       0.9441289765048786  0.5962128643595305  0.35522530511539474          1.0000   
         C         C         1.0       0.9253396175963016  0.5869012988205007  0.3907516879431385 1.0000   
         C         C         1.0       0.9421037393226588  0.6005209441859527  0.4240984987954876 1.0000   
         C         C         1.0       0.9805675357832728  0.6221989562190735  0.4235426706621577 1.0000   
         C         C         1.0       0.9995626920912377  0.6296034900380977  0.3876830767898685 1.0000   
         C         C         1.0       0.9808048356797758  0.6167250726845283  0.3547364012058031 1.0000   
         C         C         1.0       0.03942211413610619           0.6753336836252818 0.4639912579099282 1.0000   
         C         C         1.0       0.06476915775403946           0.684257735604312  0.4897646745171682 1.0000   
         C         C         1.0       0.09592030724895717           0.7159764248589333 0.49522476887053307          1.0000   
         C         C         1.0       0.10205275753806275           0.7413719844192839 0.47701435146817517          1.0000   
         C         C         1.0       0.07802100217811492           0.7335190706106156 0.4510961700540772 1.0000   
         C         C         1.0       0.04724005667660336           0.7003352480629119 0.4446318645696141 1.0000   
         C         C         1.0       0.9644686709505329  0.6648101623429021  0.49221048540963097          1.0000   
         C         C         1.0       0.9458840533461985  0.6734299195121115  0.5228614192847133 1.0000   
         C         C         1.0       0.9383205987198044  0.6632361791409218  0.5583339530925521 1.0000   
         C         C         1.0       0.9546367036244535  0.6477761936396106  0.5649955989855333 1.0000   
         C         C         1.0       0.9747039984107474  0.6403692729925621  0.53495827371549   1.0000   
         C         C         1.0       0.978763939636131   0.6476366104260571  0.49781662203696264          1.0000   
         H         H         1.0       0.1307020544009776  0.1558333866000683  0.519513861075375  1.0000   
         H         H         1.0       0.06525508247954681           0.1320015994461894 0.4271869909805464 1.0000   
         H         H         1.0       0.011498722247686333          0.08381612580745923          0.455611466162653  1.0000   
         H         H         1.0       0.07735518490530358           0.11121362371191013          0.5496953616891355 1.0000   
         H         H         1.0       0.04786993540487505           0.5366848408478323 0.4154150881457083 1.0000   
         H         H         1.0       0.10146641654278854           0.5366246549401009 0.4012122054737272 1.0000   
         H         H         1.0       0.07021207910493943           0.4819573201555491 0.4949130289292405 1.0000   
         H         H         1.0       0.02223203164470977           0.48817262628892727          0.511983068278239  1.0000   
         H         H         1.0       0.9452933028216155  0.5343340135549118  0.5041173460225937 1.0000   
         H         H         1.0       0.9458756743367934  0.5772926072029511  0.4935594395055769 1.0000   
         H         H         1.0       0.055093029304875474          0.6276899504592837 0.44400370648357573          1.0000   
         H         H         1.0       0.05899760008524124           0.5823291133772426 0.4540806566989476 1.0000   
         H         H         1.0       0.052341620628626684          0.08283919107178739          0.28343199035772043          1.0000   
         H         H         1.0       0.9217190687245272  0.5928371200040775  0.4485468764834435 1.0000   
         H         H         1.0       0.029421578180110375          0.6430813808160465 0.3838084548250955 1.0000   
         H         H         1.0       0.9961404090037272  0.6214302942137946  0.32692171676211473          1.0000   
         H         H         1.0       0.060349391480925885          0.6660238167601943 0.5055307203007127 1.0000   
         H         H         1.0       0.11131691789355602           0.7213203812036829 0.5173098076455759 1.0000   
         H         H         1.0       0.08252663460245246           0.7544567612711218 0.43892194870113144          1.0000   
         H         H         1.0       0.02404510626540879           0.6934953853213551 0.42893127900393657          1.0000   
         H         H         1.0       0.9705958900328123  0.6784297383076707  0.46893848950265843          1.0000   
         H         H         1.0       0.9385188844595124  0.6897221611013921  0.5178831602237968 1.0000   
         H         H         1.0       0.9523700786288923  0.6430333920695962  0.593105882994164  1.0000   
         H         H         1.0       0.9911955292130583  0.6338632587377778  0.54232930796513   1.0000   
         C         C         1.0       0.1160022816848234  0.01767998061850018           0.2542325176817112 1.0000   
         C         C         1.0       0.14210566162001115           0.012321996387564926         0.23173507455779585          1.0000   
         C         C         1.0       0.1336771976382427  0.9798770764704192  0.22044125137750611          1.0000   
         C         C         1.0       0.0989905829450124  0.9518742080012791  0.2318542617070673 1.0000   
         C         C         1.0       0.07469887015194732           0.9592791615507464 0.2518047707709017 1.0000   
         C         C         1.0       0.08221161894326601           0.9904959709739277 0.2651445828667105 1.0000   
         H         H         1.0       0.16653280719760222           0.03204237417402944          0.21955286275989006          1.0000   
         H         H         1.0       0.15496405901319443           0.9771185681917366 0.20262587945231086          1.0000   
         H         H         1.0       0.04797044414323781           0.94030427051648   0.2632060370325652 1.0000   
         H         H         1.0       0.05977485990905018           0.9901500215395258 0.282657283070357  1.0000   
         C         C         1.0       0.05722690111009099           0.8913213412488895 0.28399424033371845          1.0000   
         C         C         1.0       0.058308281206676416          0.8850305162932474 0.24325776672205193          1.0000   
         C         C         1.0       0.03685739313534664           0.8512362892871098 0.22436105316976415          1.0000   
         C         C         1.0       0.014141386753051322          0.8256678395992044 0.24755713165757698          1.0000   
         C         C         1.0       0.01280655450362933           0.8313083011802116 0.2869293968761448 1.0000   
         C         C         1.0       0.03499485582533124           0.8644920720966341 0.3048034927710242 1.0000   
         C         C         1.0       0.08944535524581054           0.9137726516038815 0.21960490928859236          1.0000   
         C         C         1.0       0.12064241225207661           0.9101844941421805 0.22359242486632716          1.0000   
         C         C         1.0       0.12728353063423548           0.8881946299558606 0.19731159741650023          1.0000   
         C         C         1.0       0.5847725694527075  0.9686730829481253  0.265009238115532  1.0000   
         C         C         1.0       0.5980879116593097  0.9769171110128646  0.3002826154871594 1.0000   
         C         C         1.0       0.5969366359495805  0.0029246659312518464        0.3265413399456008 1.0000   
         C         C         1.0       0.14378519073820972           0.9273188279214919 0.2520286014365899 1.0000   
         C         C         1.0       0.045709239245709465          0.9052866230863772 0.17282591835541783          1.0000   
         C         C         1.0       0.043790715582525674          0.9156936446834711 0.14057244716881634          1.0000   
         C         C         1.0       0.07021100875426711           0.9233461382594043 0.1104188996846871 1.0000   
         C         C         1.0       0.09838556535407239           0.919447762272792  0.1123729533762452 1.0000   
         C         C         1.0       0.10046180507895164           0.9116738055321436 0.14525090275248864          1.0000   
         C         C         1.0       0.07768906224315697           0.9080489446528068 0.17691888357332355          1.0000   
         C         C         1.0       0.07564135493745816           0.9432620741483926 0.07620591635755436          1.0000   
         C         C         1.0       0.08473593587542472           0.8963576255161868 0.9594297635267696 1.0000   
         C         C         1.0       0.06630336194586683           0.8777313529019041 0.9900323608037281 1.0000   
         C         C         1.0       0.06714392150446047           0.8944637737935907 0.026732364999240144         1.0000   
         C         C         1.0       0.0859773000343782  0.929597507893911   0.035814859701899904         1.0000   
         C         C         1.0       0.10625640046767226           0.9479704605378722 0.005246700686963424         1.0000   
         C         C         1.0       0.10865134082920958           0.9323411188578459 0.9679536070544831 1.0000   
         C         C         1.0       0.11049689687920705           0.9818495700927604 0.09356137284100341          1.0000   
         C         C         1.0       0.10327513816415768           0.001637960306655195         0.12175711690394797          1.0000   
         C         C         1.0       0.2077483956286903  0.741140012065794   0.12732453653772224          1.0000   
         C         C         1.0       0.2371719869595008  0.7520630807524175  0.098863259644413  1.0000   
         C         C         1.0       0.23819141625977025           0.7283451078132217 0.07228665950670665          1.0000   
         C         C         1.0       0.14628748760091348           0.9921160524347402 0.08488470673485193          1.0000   
         C         C         1.0       0.04563769551448571           0.9691242697059165 0.055673792258654764         1.0000   
         C         C         1.0       0.0159093799769896  0.9637509234259999  0.03873484344626377          1.0000   
         C         C         1.0       0.9834459250268731  0.9316814219060519  0.035863703066523644         1.0000   
         C         C         1.0       0.9788681615693878  0.906297310773624   0.05183752930868324          1.0000   
         C         C         1.0       0.0069290383891922325         0.9114499068614281 0.06845666914285764          1.0000   
         C         C         1.0       0.040951442756753   0.942069111312204   0.06790761353011443          1.0000   
         H         H         1.0       0.07546475127132224           0.9170652790506004 0.29910313311436654          1.0000   
         H         H         1.0       0.03857238887987946           0.8478360133102972 0.19264967353546808          1.0000   
         H         H         1.0       0.9961001756544452  0.7995412234752495  0.2325756995334486 1.0000   
         H         H         1.0       0.03585382557472072           0.8694224424919567 0.33505149731870987          1.0000   
         H         H         1.0       0.10511399716629022           0.869422974964227  0.1780340666354485 1.0000   
         H         H         1.0       0.5882203971596329  0.950301946522057   0.24550966087697354          1.0000   
         H         H         1.0       0.6094281829805868  0.012773743672225724         0.3535944457440226 1.0000   
         H         H         1.0       0.13706750174960658           0.9400572239326435 0.2766099378387091 1.0000   
         H         H         1.0       0.024976847321943163          0.9010631992256134 0.19780877382551626          1.0000   
         H         H         1.0       0.020470644268329785          0.9181542066555046 0.14137346226053002          1.0000   
         H         H         1.0       0.1232520218601092  0.9285717666181297  0.09181524899832415          1.0000   
         H         H         1.0       0.12689812603766004           0.9170604716245232 0.1473510999350185 1.0000   
         H         H         1.0       0.04518553622490673           0.8503369573594434 0.9863484085269504 1.0000   
         H         H         1.0       0.04380191934070399           0.8784824526533721 0.045957814309259826         1.0000   
         H         H         1.0       0.11842015957975627           0.9742557196231735 0.010558230913842559         1.0000   
         H         H         1.0       0.12587019315463444           0.9465283541511667 0.9446312239818996 1.0000   
         H         H         1.0       0.07547323621067625           0.9950017610470725 0.12502419610508242          1.0000   
         H         H         1.0       0.2071074527718202  0.7599216216490107  0.1495899914111216 1.0000   
         H         H         1.0       0.2609610201938375  0.734660498620259   0.050109581651665236         1.0000   
         H         H         1.0       0.15509342738220244           0.9767146312363585 0.0667466493594926 1.0000   
         H         H         1.0       0.07180240531247661           0.9934010704301119 0.05345961714773373          1.0000   
         H         H         1.0       0.020408926341970002          0.9852795621125977 0.028627042303678296         1.0000   
         H         H         1.0       0.9536401570841884  0.8820224613945189  0.04884058391983137          1.0000   
         H         H         1.0       0.0010900110486598003         0.8887536738446311 0.07995651915984059          1.0000   
         C         C         1.0       0.12360280841159255           0.0534021642871203 0.2674830366013739 1.0000   
         C         C         1.0       0.9248406329074295  0.583327841290878   0.3185557291127326 1.0000   
         H         H         1.0       0.9071111393654151  0.5303071297438756  0.3104165981290175 1.0000   
         H         H         1.0       0.1152106218378961  0.05370422840252842           0.3005167744737692 1.0000   
         H         H         1.0       0.07050289219311257           0.04350752637645039          0.26295275272227925          1.0000   
         H         H         1.0       0.9347236186035839  0.6045041417127757  0.30210698181094714          1.0000   
         C         C         1.0       0.987141524986706   0.7996092262183242  0.30947897831524235          1.0000   
         C         C         1.0       0.003551094648991393          0.7840699779060646 0.3252998998357896 1.0000   
         H         H         1.0       0.9774231288512772  0.8096190011069748  0.33483155844783746          1.0000   
         H         H         1.0       0.9643849864357328  0.7788304827072747  0.2899744145863105 1.0000   
         H         H         1.0       0.9849241466616616  0.7552364400173858  0.321210715343661  1.0000   
         H         H         1.0       0.02730679055671681           0.786928145650203  0.3071212162631278 1.0000   
         C         C         1.0       0.0054068183365278966         0.028874221099425945         0.4925861118461556 1.0000   
         C         C         1.0       0.009811976323789162          0.06029540632206842          0.5209421064294846 1.0000   
         H         H         1.0       0.008064993426288192          0.03080191944288102          0.46272095546672615          1.0000   
         H         H         1.0       0.9750356950969231  0.006439289505091095         0.49365049505082226          1.0000   
         H         H         1.0       0.01628397127780401           0.05896166456625984          0.5493561046532368 1.0000   
         H         H         1.0       0.9826488367554137  0.056481649725384164         0.5259729941959103 1.0000   
         C         C         1.0       0.12465045363959915           0.8007096045508232 0.5211271106600851 1.0000   
         C         C         1.0       0.13265670091726678           0.7779991393149845 0.4909406084930039 1.0000   
         H         H         1.0       0.11161446481911108           0.789618179992105  0.5479082427312981 1.0000   
         H         H         1.0       0.15154541738679583           0.8268134030292283 0.5313989354046722 1.0000   
         H         H         1.0       0.1527908583653066  0.7767159397733787  0.500899425960335  1.0000   
         H         H         1.0       0.1482739424023194  0.7924631634154106  0.4658951962145822 1.0000   
         C         C         1.0       0.6579761461854416  0.9772602439804683  0.28720713442714957          1.0000   
         C         C         1.0       0.618167899694845   0.9616394569283415  0.3084012257578202 1.0000   
         H         H         1.0       0.6567723992421581  0.9728303903385255  0.256814855588795  1.0000   
         H         H         1.0       0.6685431653040061  0.9628898130417793  0.2927032142692865 1.0000   
         H         H         1.0       0.6206903518776917  0.9617529380563868  0.33827617451375885          1.0000   
         H         H         1.0       0.6036971641455393  0.9330112166833578  0.29990418634507926          1.0000   
         C         C         1.0       0.10782396618028445           0.01628051665825936          0.3616506197652214 1.0000   
         C         C         1.0       0.13068342482444306           0.5252927485825646 0.45346328404363123          1.0000   
         H         H         1.0       0.08854424402702654           0.01311080204866455          0.3434370173806394 1.0000   
         H         H         1.0       0.09123317147174337           0.9887666492845354 0.36605863284461804          1.0000   
         H         H         1.0       0.15085856043253587           0.539270270379039  0.432435996255617  1.0000   
         H         H         1.0       0.13173341350703893           0.5032372268783686 0.4519979796207931 1.0000   
         C         C         1.0       0.8720484762716886  0.6401311746309643  0.5862046274030484 1.0000   
         C         C         1.0       0.9131211404174497  0.6678814529355901  0.5911928678401629 1.0000   
         H         H         1.0       0.8607665506782177  0.6352138975635292  0.6163996480302179 1.0000   
         H         H         1.0       0.8663287604047334  0.6164788692531139  0.5676260118885802 1.0000   
         H         H         1.0       0.9177919665742287  0.6928315789974547  0.5927921035776895 1.0000   
         H         H         1.0       0.9199657228560859  0.6655221045626213  0.6184094835720239 1.0000   
         C         C         1.0       0.886267274486016   0.8313645407389568  0.5703223731475437 1.0000   
         C         C         1.0       0.924400635367682   0.8510314549319772  0.5889773381504848 1.0000   
         H         H         1.0       0.8894001049077388  0.8437201416101139  0.5462661996682955 1.0000   
         H         H         1.0       0.8688086626878676  0.8371028424196519  0.5923612374431034 1.0000   
         H         H         1.0       0.9194623030602662  0.8442047397525666  0.6176786252129679 1.0000   
         H         H         1.0       0.9392029674728479  0.8792264668816847  0.5939002916627502 1.0000   
         C         C         1.0       0.71670328044002    0.14172167350991827           0.5313631292219382 1.0000   
         C         C         1.0       0.2629314442778792  0.04595017604302121           0.4751678413940141 1.0000   
         H         H         1.0       0.32015884515605175           0.08062838520727245          0.45390532632228586          1.0000   
         H         H         1.0       0.7428549915170667  0.16494018912297714           0.5440072932313114 1.0000   
         H         H         1.0       0.7127906962509146  0.1832287682149012  0.5335520069034566 1.0000   
         H         H         1.0       0.2564829766213259  0.023026871003440252         0.4568481630648495 1.0000   
         C         C         1.0       0.9530803936329156  0.9244820659079582  0.013870987723000772         1.0000   
         C         C         1.0       0.937928720947209   0.8918389057093119  0.9823627934868939 1.0000   
         H         H         1.0       0.9331260388113373  0.9251013275898864  0.038019905989770564         1.0000   
         H         H         1.0       0.963611699925238   0.9458712895033375  0.9972799262501502 1.0000   
         H         H         1.0       0.9153283921256451  0.86933337244292    0.9956288235574797 1.0000   
         H         H         1.0       0.959747531598465   0.8883931943832689  0.9671514449837975 1.0000   
         C         C         1.0       0.07730147428963119           0.8815517428601375 0.9168882280369068 1.0000   
         C         C         1.0       0.07343248625616305           0.8470626793288898 0.9066979982238833 1.0000   
         H         H         1.0       0.0531249325900125  0.8773121659868183  0.9087975221414131 1.0000   
         H         H         1.0       0.09791753583655183           0.8986324733845446 0.8964057490907982 1.0000   
         H         H         1.0       0.048319453136685064          0.8287467951349391 0.8906031425889898 1.0000   
         H         H         1.0       0.06438347114846743           0.834625107534223  0.932944719584114  1.0000   
         C         C         1.0       0.7445597448423819  0.9228903431490615  0.8409322623897858 1.0000   
         C         C         1.0       0.7564136687585966  0.931492476759715   0.8816940477794567 1.0000   
         H         H         1.0       0.7672976558048763  0.9424835638667365  0.824825134459049  1.0000   
         H         H         1.0       0.7418437770757779  0.9001074862074488  0.8258982203701145 1.0000   
         H         H         1.0       0.7351427725575079  0.918037373053549   0.9035320253095733 1.0000   
         H         H         1.0       0.7646070991347024  0.9576296871322016  0.8939753192208825 1.0000   
         C         C         1.0       0.11573393996011982           0.9896227184020895 0.8731817339969676 1.0000   
         C         C         1.0       0.09717085173766948           0.9768493709141948 0.9131267473047535 1.0000   
         H         H         1.0       0.11828089786980778           0.01346247033748682          0.8755017114467762 1.0000   
         H         H         1.0       0.09396987646508537           0.9712418022052837 0.8526599409920576 1.0000   
         H         H         1.0       0.08229207855267617           0.9502144274859854 0.9100234141084798 1.0000   
         H         H         1.0       0.11920643171875533           0.9859613031608079 0.9332089570623122 1.0000   
         C         C         1.0       0.25444979595434103           0.8046913427727435 0.07392109131771751          1.0000   
         C         C         1.0       0.2678950206689936  0.7895269050825605  0.09600885440783213          1.0000   
         H         H         1.0       0.27342273789250027           0.8323585249182046 0.08179523727887128          1.0000   
         H         H         1.0       0.2286776494079188  0.7991372574762856  0.09202871357432563          1.0000   
         H         H         1.0       0.2940630460342404  0.793028358951755   0.08409051575108273          1.0000   
         H         H         1.0       0.2786964864531718  0.8033564244530373  0.12415634856267087          1.0000   
         C         C         1.0       0.2734859993420202  0.7997081975157124  0.689288877258916  1.0000   
         C         C         1.0       0.23255826344287844           0.7859012287235413 0.7010507372242648 1.0000   
         H         H         1.0       0.28995478636065775           0.8246263793832266 0.6803852972505483 1.0000   
         H         H         1.0       0.27126635641930896           0.7826855380583881 0.6609816309088249 1.0000   
         H         H         1.0       0.21755047965783048           0.7593449400106169 0.7082819536179207 1.0000   
         H         H         1.0       0.2187176857606612  0.7833793112904002  0.6753408917445801 1.0000   
         C         C         1.0       0.7327296514950346  0.15545550735918168           0.004476794924639149         1.0000   
         C         C         1.0       0.1898658964035831  0.053313542395176716         0.9890251734036415 1.0000   
         H         H         1.0       0.7580176650558648  0.18170531842506565           0.0006545623831093472        1.0000   
         H         H         1.0       0.74106045179139    0.14200152579159608           0.015189293274305182         1.0000   
         H         H         1.0       0.1621343771340229  0.027727665762117493         0.9904734001211043 1.0000   
         H         H         1.0       0.1997317519136872  0.0568837156487525  0.9579322334123958 1.0000   
         C         C         1.0       0.8142829656960756  0.8823796121345457  0.7197596036876965 1.0000   
         C         C         1.0       0.8463920982945032  0.8790595690757397  0.7228481989157919 1.0000   
         H         H         1.0       0.820834226545182   0.9085155084475557  0.7313459122824117 1.0000   
         H         H         1.0       0.8147599177438245  0.8806625912270521  0.6875316644696127 1.0000   
         H         H         1.0       0.8688040930958948  0.8935866333995057  0.6992235828203579 1.0000   
         H         H         1.0       0.8385409778867423  0.8524115968054029  0.7144427119993597 1.0000   
         C         C         1.0       0.11666123751252377           0.690375564301175  0.8290450836002811 1.0000   
         C         C         1.0       0.07799375774359252           0.6695773910161152 0.8500092361707919 1.0000   
         H         H         1.0       0.12082551157136345           0.7134247397894724 0.8203907187956624 1.0000   
         H         H         1.0       0.11382844514832335           0.672982272996961  0.8028923060796902 1.0000   
         H         H         1.0       0.05709287554491205           0.6632347774525195 0.8294192833286403 1.0000   
         H         H         1.0       0.07641239597064509           0.686140593551898  0.8762515289588718 1.0000   
         C         C         1.0       0.11361472975533715           0.06414999680212485          0.6938506535979178 1.0000   
         C         C         1.0       0.15269696041336678           0.07982368808894424          0.7079592825807746 1.0000   
         H         H         1.0       0.10872948496332047           0.08467298824734626          0.6968892881226473 1.0000   
         H         H         1.0       0.09275404679568866           0.045736632866286486         0.7119946895714699 1.0000   
         H         H         1.0       0.15881974648672048           0.06045440438738403          0.7009767410307173 1.0000   
         H         H         1.0       0.1540654125258667  0.08484118914758287           0.7389525725039909 1.0000   
         C         C         1.0       0.05961048660288748           0.5224093436788129 0.6272400846146726 1.0000   
         C         C         1.0       0.05364886963604354           0.5519844577381212 0.6381501812290635 1.0000   
         H         H         1.0       0.03218532929846374           0.5006136247952073 0.6183166067912739 1.0000   
         H         H         1.0       0.06280732758238616           0.5178534874081453 0.6556314122513741 1.0000   
         H         H         1.0       0.07802298566055743           0.5773434537303797 0.6476399821389738 1.0000   
         H         H         1.0       0.03335140120375746           0.5478277712373887 0.6640866768775382 1.0000   
         C         C         1.0       0.6183217469701836  0.6238359339853329  0.5311078944861152 1.0000   
         C         C         1.0       0.6365641976103673  0.6176422285257718  0.5573131042292636 1.0000   
         H         H         1.0       0.6252068684358844  0.6170198304571705  0.4989477478592068 1.0000   
         H         H         1.0       0.6321172916168455  0.6512520663933994  0.531218315140788  1.0000   
         H         H         1.0       0.6199555523859497  0.5908199166323166  0.5592291700835391 1.0000   
         H         H         1.0       0.6371791194950573  0.6307292672641244  0.5872729949817422 1.0000   
         C         C         1.0       0.1736792141265564  0.1336968780746166  0.8545725622460176 1.0000   
         C         C         1.0       0.19471029968048192           0.11672220027586477          0.8458297737003369 1.0000   
         H         H         1.0       0.16860148592826807           0.13376575003722846          0.8249097694073727 1.0000   
         H         H         1.0       0.19090911724899962           0.15969137555009105          0.8670932448241154 1.0000   
         H         H         1.0       0.20102668585439298           0.1148104411717299 0.8714805870156519 1.0000   
         H         H         1.0       0.1816770553235305  0.09229714442395798           0.8301498405946014 1.0000   
         C         C         1.0       0.620666864066964   0.6267019245100178  0.7485435753042957 1.0000   
         C         C         1.0       0.6488231633966973  0.6587385236735421  0.7278274807120936 1.0000   
         H         H         1.0       0.32056246046339476           0.6713280592262937 0.7159956758584441 1.0000   
         H         H         1.0       0.6300143053750629  0.6083065780681518  0.7405137042469407 1.0000   
         H         H         1.0       0.6762096212000773  0.6637321269566143  0.7311880483564067 1.0000   
         H         H         1.0       0.6451114327779758  0.6523465095628601  0.6976363930434284 1.0000   
         C         C         1.0       0.399994195078772   0.11052555203397829           0.7753931122863025 1.0000   
         C         C         1.0       0.401216425621703   0.12396580279330349           0.738819419333407  1.0000   
         H         H         1.0       0.726602503092143   0.12416915756955449           0.7025714884092804 1.0000   
         H         H         1.0       0.42040251228707537           0.1053724242238705 0.7723916128120814 1.0000   
         H         H         1.0       0.38665681271023855           0.10300124472191508          0.7164533601419041 1.0000   
         H         H         1.0       0.43101632747790375           0.14000843173948718          0.727408887043851  1.0000

